<?xml version="1.0" encoding="UTF-8"?>

<!-- generated on 01/05/24 06:16:31 by Eclipse SUMO duarouter Version 1.2.0
<configuration xmlns:xsi="http://www.w3.org/2001/XMLSchema-instance" xsi:noNamespaceSchemaLocation="http://sumo.dlr.de/xsd/duarouterConfiguration.xsd">

    <input>
        <net-file value="erlangen.net.xml"/>
        <route-files value="trips.trips.xml"/>
    </input>

    <output>
        <output-file value="erlangen4.rou.xml"/>
        <alternatives-output value="erlangen4.rou.alt.xml"/>
    </output>

    <time>
        <begin value="0"/>
        <end value="30000.0"/>
    </time>

    <report>
        <no-warnings value="true"/>
        <ignore-errors value="true"/>
        <no-step-log value="true"/>
    </report>

</configuration>
-->

<routes xmlns:xsi="http://www.w3.org/2001/XMLSchema-instance" xsi:noNamespaceSchemaLocation="http://sumo.dlr.de/xsd/routes_file.xsd">
    <vehicle id="0" depart="0.00">
        <route edges="4006724#2 -3998612#1 -3998612#0 3998613#0 3998613#1 3998613#2 -31353573#1 4006673 -32302591#4 -32302591#3 -32302591#2 4006683"/>
    </vehicle>
    <vehicle id="1" depart="4.00">
        <route edges="113939242#1 113939244#1 113939244#2 -126606716 23339459 30405358#1 85355912 85355911#0 85355911#1 30405356 5931612 30350450#0 -3998645#2 -3998615#3 3998615#3"/>
    </vehicle>
    <vehicle id="2" depart="8.00">
        <route edges="-3998615#3 -4099270#0 -4006726#1 3998643#1"/>
    </vehicle>
    <vehicle id="3" depart="12.00">
        <route edges="-4900739#1 4900739#1 4900739#2 4900741 35842306#0 35842306#1 4047446#0 4047446#1 5931612 30350450#0 30350450#1 30350450#2 4006702#0 28613737 94344941 94344940#0 67076129"/>
    </vehicle>
    <vehicle id="4" depart="16.00">
        <route edges="4047241 4797872 4797871 4006668 23339459 30405358#1 85355912 85355911#0 85355911#1 30405356 5931612 30350450#0 -3998645#2 -3998645#1 -3998645#0 -4006725#1 -4006725#0"/>
    </vehicle>
    <vehicle id="5" depart="20.00">
        <route edges="10573414#0 10573414#1 3013106#0 3013106#1 3013106#2 4319352#1 44069041#0 44069041#1 4400949 31982182#0 31982182#1"/>
    </vehicle>
    <vehicle id="7" depart="28.00">
        <route edges="-4006701 -4006702#2 -4006702#1 -4006702#0 4319352#1 44069041#0 25472134 30751813 -35842306#1 -35842306#0 -4900741 -4900739#2 -4900739#1 4900739#1"/>
    </vehicle>
    <vehicle id="8" depart="32.00">
        <route edges="4006705#2 -4006705#2 -4006705#1 4006703#1 28269598 -4006702#2 -4006702#1 -4006702#0 4319352#1 44069041#0 44069041#1 25472079 30405352 30350445 4686970#0"/>
    </vehicle>
    <vehicle id="9" depart="36.00">
        <route edges="32270592#1 4047532 31401018 29900567 31401017#0 4006688#0 4006688#1 4006688#2 4006688#3 4006688#4 29900561#0 29900561#1 32270595 33174302#0 33174302#1 4686970#0 4686970#1 122161381 30350448 8364476 30350450#0 30350450#1 30350450#2 4006702#0 4006702#1 4006702#2 -28269598 -4006703#1 4006705#1 -25210699"/>
    </vehicle>
    <vehicle id="10" depart="40.00">
        <route edges="-39539626 -5445204#2 -5445204#1 113939244#2 -126606716 23339459 30405358#1 85355912 85355911#0 85355911#1 30405356 5931612 30350450#0 30350450#1 30350450#2 4006702#0 31255203#0 -31241851#2 -31241851#1 31261347"/>
    </vehicle>
    <vehicle id="11" depart="44.00">
        <route edges="-31241851#0 31241851#0 31241851#1 31241851#2 -31255203#0 -4006702#0 4319352#1 44069041#0 44069041#1 4400949 31982182#0 31982182#1"/>
    </vehicle>
    <vehicle id="12" depart="48.00">
        <route edges="-28613727#1 28613727#1 -94344940#0 28768072 -28613737 4006702#1 4900043 4900041#1 4900041#2 4900041#3 4900041#0 -4900043"/>
    </vehicle>
    <vehicle id="13" depart="52.00">
        <route edges="30405358#0 30405358#1 85355912 85355911#0 85355911#1 30405356 4047309 30751813 -35842306#1 -35842306#0 -4900741 -4900739#2 -4900739#1 -4099309"/>
    </vehicle>
    <vehicle id="14" depart="56.00">
        <route edges="-4006683 32302591#2 32302591#3 32302591#4 32302591#5 33174302#0 33174302#1 4686970#0 4686970#1 122161381 30350448 8364476 30350450#0 30350450#1 30350450#2 4319352#1 44069041#0"/>
    </vehicle>
    <vehicle id="15" depart="60.00">
        <route edges="15259223 4006668 23339459 30405358#1 85355912 85355911#0 85355911#1 30405356 5931612 30350450#0 30350450#1 -3998643#2 -3998615#1 3998615#1"/>
    </vehicle>
    <vehicle id="16" depart="64.00">
        <route edges="113939242#1 113939244#1 113939244#2 -126606716 23339459 30405358#1 85355912 85355911#0 85355911#1 30405356 25472079 30405352 19796637 122161390 -30357194"/>
    </vehicle>
    <vehicle id="17" depart="68.00">
        <route edges="4006673 32302591#5 33174302#0 33174302#1 4686970#0 4686970#1 122161381 30350448 8364476 30350450#0 30350450#1 30350450#2 4006702#0 31255203#0 -31241851#2 -31241851#1 -31241851#0 31241816#3"/>
    </vehicle>
    <vehicle id="18" depart="72.00">
        <route edges="30405358#0 30405358#1 85355912 85355911#0 85355911#1 30405356 5931612 30350450#0 30350450#1 30350450#2 4319353 4319349"/>
    </vehicle>
    <vehicle id="19" depart="76.00">
        <route edges="94344940#0 -94344940#0 28768072 -28613737 -4006702#0 -3013106#2 -3013106#1 -3013106#0 -3998612#2 -3998612#1 3998645#0"/>
    </vehicle>
    <vehicle id="20" depart="80.00">
        <route edges="3998645#1 -3998645#1 -3998645#0 -3998612#0 3998613#0 3998613#1 3998613#2 -31353573#1 4006673 -32302591#4 -32302591#3 -32302591#2 -32302591#1 -32302591#0 -125685391"/>
    </vehicle>
    <vehicle id="21" depart="84.00">
        <route edges="33174302#0 33174302#1 4686970#0 4686970#1 122161381 30350448 8364476 30350450#0 30350450#1 -3998643#2 3998615#2"/>
    </vehicle>
    <vehicle id="22" depart="88.00">
        <route edges="-3013106#0 3013106#0 3013106#1 3013106#2 4006702#0 4006702#1 4900043"/>
    </vehicle>
    <vehicle id="23" depart="92.00">
        <route edges="-31353573#1 -31353573#0 4686970#0 4686970#1 122161381 30350448 8364476 30350450#0 30350450#1 30350450#2 4006702#0 4006702#1 4006702#2 -28269598 -4006703#1 -4006703#0"/>
    </vehicle>
    <vehicle id="24" depart="96.00">
        <route edges="5445204#3 -5445204#3 -5445204#2 -5445204#1 113939244#2 -126606716 23339459 30405358#1 85355912 85355911#0 85355911#1 30405356 5931612 30350450#0 30350450#1 -3998643#2 -3998615#1 4006726#0"/>
    </vehicle>
    <vehicle id="25" depart="100.00">
        <route edges="-4006674#3 4006674#3 4006674#4 8403001 29900564#0 29900564#1 8403007 -23341293 -10425128#0 4006693#3"/>
    </vehicle>
    <vehicle id="26" depart="104.00">
        <route edges="126606716 -126606716 23339459 30405358#1 85355912 85355911#0 85355911#1 30405356 25472079 30405352 30350445 -33174302#1 -33174302#0 -32302591#5 -32302591#4 -32302591#3 -32302591#2 4006683"/>
    </vehicle>
    <vehicle id="27" depart="108.00">
        <route edges="-28269601 28269601 37591481 -113939241 113939244#0 113939244#1 113939244#2 -126606716 23339459 30405358#1 85355912 85355911#0 85355911#1 30405356 5931612 30350450#0 -3998645#2 -3998645#1 -3998645#0 3998612#1 -4006724#2 -4006724#1 -4006724#0"/>
    </vehicle>
    <vehicle id="28" depart="112.00">
        <route edges="31353573#0 4006673 -32302591#4 -32302591#3 -32302591#2 -32302591#1 -32302591#0 4006672 32270593 32270592#0 32270592#1"/>
    </vehicle>
    <vehicle id="29" depart="116.00">
        <route edges="113939242#2 113939244#0 -25398494#0 -31401017#2 -31401017#1 4006688#0 4006688#1 4006688#2 4006688#3 4006688#4 29900561#0 29900561#1 32270595 -32302591#5 -32302591#4 -32302591#3 -4006684"/>
    </vehicle>
    <vehicle id="30" depart="120.00">
        <route edges="-4006683 32302591#2 32302591#3 32302591#4 32302591#5 33174302#0 33174302#1 4686970#0 4686970#1 122161381 30350448 30350449 4400949 31982182#0 4047241 4797872 4797871 4006668 23339459"/>
    </vehicle>
    <vehicle id="31" depart="124.00">
        <route edges="-29900564#3 -29900564#2 -29900564#1 -8402998#2 -8402998#1 -8402997 32270595 33174302#0 33174302#1 4686970#0 4686970#1 122161381 30350448 8364476 30350450#0 30350450#1 30350450#2 4006702#0 4006702#1 4006702#2 -28269598 -4006703#1 4006705#1 -4006705#1"/>
    </vehicle>
    <vehicle id="32" depart="128.00">
        <route edges="-3998612#2 3998643#0 -4006726#0"/>
    </vehicle>
    <vehicle id="33" depart="132.00">
        <route edges="31720632#0 -31720632#0 -4006705#2 -4006705#1 4006703#1 28269598 -4006702#2 -4006702#1 -4006702#0 -3013106#2 -3013106#1 -3013106#0 -10573414#1"/>
    </vehicle>
    <vehicle id="34" depart="136.00">
        <route edges="-31261347 31241851#1 31241851#2 -31255203#0 -4006702#0 4319352#1 44069041#0 44069041#1 25472079 30405352 30350445 -33174302#1 -33174302#0 -29900565#3 -29900565#2 -29900565#1 -29900565#0 -4006690"/>
    </vehicle>
    <vehicle id="35" depart="140.00">
        <route edges="3998612#1 -3998612#1 -3998612#0 3998613#0 3998613#1 3998613#2 -31353573#1 4006673 -32302591#4 -32302591#3 -32302591#2 -32302591#1 -32302591#0 4006672 32270593 32270592#0 32270592#1 4047532"/>
    </vehicle>
    <vehicle id="36" depart="144.00">
        <route edges="4006725#0 4006725#1 -3998612#0 30357194 25472299 30350448 30350449 4400949 31982182#0 4047241 4797872 4797871 4006668 126606716"/>
    </vehicle>
    <vehicle id="37" depart="148.00">
        <route edges="28613727#1 -94344940#0 28768072 -28613737 -4006702#0 4319352#1 44069041#0 44069041#1 4400949 31982182#0 4047241 4797872 4797871 -15259223"/>
    </vehicle>
    <vehicle id="38" depart="152.00">
        <route edges="4872369 4006725#1 -3998612#0 3998613#0 3998653"/>
    </vehicle>
    <vehicle id="39" depart="156.00">
        <route edges="-4006688#2 4006688#2 4006688#3 4006688#4 29900561#0 29900561#1 32270595 33174302#0 33174302#1 4686970#0 4686970#1 122161381 30350448 8364476 30350450#0 -3998645#2 -3998645#1 -3998645#0"/>
    </vehicle>
    <vehicle id="40" depart="160.00">
        <route edges="-37591481 37591481 -113939241 113939244#0 113939244#1 113939244#2 -126606716 23339459"/>
    </vehicle>
    <vehicle id="41" depart="164.00">
        <route edges="-3998653 -3998613#0 3998612#0 3998612#1 3998612#2 3013106#0 3013106#1 3013106#2 4006702#0 4006702#1 4006702#2 -4006702#2"/>
    </vehicle>
    <vehicle id="42" depart="168.00">
        <route edges="23605600#0 4006674#4 4006687 32270595 33174302#0 33174302#1 4686970#0 4686970#1 122161381 30350448 8364476 30350450#0 30350450#1 30350450#2 4006702#0 28613737 94344941 94344940#0 -94344940#0"/>
    </vehicle>
    <vehicle id="43" depart="172.00">
        <route edges="-3013107 3013107"/>
    </vehicle>
    <vehicle id="44" depart="176.00">
        <route edges="31353573#1 -31353573#1 -31353573#0 4686970#0 4686970#1 122161381 30350448 30350449 4047309 30751813 -35842306#1 -35842306#0 -4900741 -4900739#2 -4900739#1 4900739#1"/>
    </vehicle>
    <vehicle id="45" depart="180.00">
        <route edges="4006702#0 -4006702#0 4319352#1 44069041#0 44069041#1 4400949 31982182#0 4047241 4797872 4797871 4006668 23339459 30405358#1 85355912 85355911#0 25472101"/>
    </vehicle>
    <vehicle id="46" depart="184.00">
        <route edges="28613727#0 28613727#1 -94344940#0 28768072 -28613737 -4006702#0 4319352#1 44069041#0 25472134 30751813 4047446#0"/>
    </vehicle>
    <vehicle id="47" depart="188.00">
        <route edges="25472257 25472299 30350448 8364476 30350450#0 30350450#1 -3998643#2 -3998615#1"/>
    </vehicle>
    <vehicle id="48" depart="192.00">
        <route edges="32302591#5 -32270595 8402997 8402998#1 8402998#2"/>
    </vehicle>
    <vehicle id="49" depart="196.00">
        <route edges="30405358#0 30405358#1 85355912 85355911#0 85355911#1 30405356 4400949"/>
    </vehicle>
    <vehicle id="50" depart="200.00">
        <route edges="-4006684 4006674#3 4006674#4 4006687 8402997 -8402998#0 29900565#3"/>
    </vehicle>
    <vehicle id="51" depart="204.00">
        <route edges="-94344940#0 28768072 -28613737 -4006702#0 4319352#1 44069041#0 44069041#1 4400949 31982182#0 4047241"/>
    </vehicle>
    <vehicle id="52" depart="208.00">
        <route edges="4872369 4006725#1 -3998612#0 30357194 25472299 30350448 30350449 4400949 31982182#0 4047241 4797872 4797871 4006668 126606716 113939242#0 113939242#1 113939242#2 113939241 -37591481 -28269601"/>
    </vehicle>
    <vehicle id="53" depart="212.00">
        <route edges="29900565#0 29900565#1 29900565#2 29900565#3 33174302#0 33174302#1 4686970#0 4686970#1 122161381 30350448 8364476 30350450#0 30350450#1 -3998643#2 3998615#2"/>
    </vehicle>
    <vehicle id="54" depart="216.00">
        <route edges="4006683 4006674#2 4006674#3 4006674#4 8403001 -4006688#4 -4006688#3 -4006688#2 -4006688#1 -4006688#0 31401017#1 31401017#2 25398494#0 113939244#1 113939244#2 -126606716"/>
    </vehicle>
    <vehicle id="55" depart="220.00">
        <route edges="31241855#0 31241816#0 -31241838#1 -31241838#0 -31255203#1 -31255203#0 -4006702#0 4319352#1 44069041#0 44069041#1 25472079 30405352 30350445 -33174302#1 -33174302#0 -32270595 32270595"/>
    </vehicle>
    <vehicle id="56" depart="224.00">
        <route edges="-113939241 113939244#0 -25398494#0 4006693#0 -23605595 -8403007 -29900564#1"/>
    </vehicle>
    <vehicle id="57" depart="228.00">
        <route edges="30350450#1 30350450#2 4319352#1 44069041#0 25472134 30751813 -35842306#1 -35842306#0 -4900741 -4900739#2 -4900739#1 -4099309"/>
    </vehicle>
    <vehicle id="58" depart="232.00">
        <route edges="4006668 126606716 113939242#0 113939242#1 113939242#2 113939241 -37591481 -28269601"/>
    </vehicle>
    <vehicle id="59" depart="236.00">
        <route edges="31241816#3 -31241816#3 31241851#0 31241851#1 31241851#2 -31255203#0 -4006702#0 4319352#1 44069041#0 44069041#1 4400949 31982182#0 4047241 4797872 4797871 4006668 126606716 113939242#0 113939242#1 113939242#2 113939241"/>
    </vehicle>
    <vehicle id="60" depart="240.00">
        <route edges="4900043 4900041#1 4900041#2 4900041#3 4900041#0 -4900043 -4006702#1 -4006702#0 4319352#1 44069041#0 44069041#1 25472079 30405352 30350445 -33174302#1 -33174302#0 -32270595 -29900561#1 -29900561#0 29900564#0 -8402998#2"/>
    </vehicle>
    <vehicle id="61" depart="244.00">
        <route edges="113939244#0 113939242#2 113939241 -37591481"/>
    </vehicle>
    <vehicle id="62" depart="248.00">
        <route edges="-4006687 8403001 29900561#0 29900561#1 32270595 33174302#0 33174302#1 4686970#0 4686970#1 122161381 30350448 30350449 4400949 31982182#0 31982182#1"/>
    </vehicle>
    <vehicle id="63" depart="252.00">
        <route edges="-32302591#5 32302591#5 33174302#0 33174302#1 4686970#0 25472257 -30357194 30357194"/>
    </vehicle>
    <vehicle id="64" depart="256.00">
        <route edges="31255203#1 -31255203#1 -31255203#0 -4006702#0 -3013106#2 -3013106#1 -3013106#0 -3998612#2 -3998612#1 -3998612#0 30357194"/>
    </vehicle>
    <vehicle id="65" depart="260.00">
        <route edges="-3998645#1 -3998645#0 -3998612#0 30357194 25472299 30350448 30350449 25472079 30405352 30350445 -33174302#1 -33174302#0 -32270595 8402997 8402998#1 8402998#2"/>
    </vehicle>
    <vehicle id="66" depart="264.00">
        <route edges="-4006726#2 4006726#2 -3998645#0 -3998612#0 3998613#0 3998613#1 3998613#2"/>
    </vehicle>
    <vehicle id="67" depart="268.00">
        <route edges="4047241 4797872 4797871 4006668 23339459 30405358#1 85355912 85355911#0 85355911#1 30405356 25472079 30405352 30350445 -33174302#1 -33174302#0 -32302591#5 -32302591#4 -32302591#3 -32302591#2 -32302591#1 -32302591#0 4006672 -4006672"/>
    </vehicle>
    <vehicle id="68" depart="272.00">
        <route edges="15259223 4006668 23339459 30405358#1 85355912 85355911#0 85355911#1 30405356 5931612 30350450#0 30350450#1 30350450#2 4006702#0 31255203#0 -31241851#2 -31241851#1 -31241851#0 31241851#0"/>
    </vehicle>
    <vehicle id="69" depart="276.00">
        <route edges="30350450#2 4319352#1 44069041#0 44069041#1 25472079 30405352 30350445 -33174302#1 -33174302#0 -29900565#3 -29900565#2 -29900565#1 -29900565#0 29900565#0"/>
    </vehicle>
    <vehicle id="70" depart="280.00">
        <route edges="32282774 30357194 25472299 30350448 30350449 25472079 30405352 30350445 -33174302#1 -33174302#0 -32270595 -29900561#1 -29900561#0 29900564#0 -29900564#0"/>
    </vehicle>
    <vehicle id="71" depart="284.00">
        <route edges="30350450#2 4319352#1 44069041#0 44069041#1 4400949 31982182#0 4047241 4797872 4797871 4006668 126606716 113939242#0 113939242#1 -25398494#0"/>
    </vehicle>
    <vehicle id="72" depart="288.00">
        <route edges="3998612#2 3013106#0 3013106#1 3013106#2 4319352#1 44069041#0 44069041#1 25472079 30405352 30350445 -33174302#1 -33174302#0 -32270595 -29900561#1 -29900561#0 -4006688#4 -10425130"/>
    </vehicle>
    <vehicle id="73" depart="292.00">
        <route edges="15259223 4006668 23339459 30405358#1 85355912 85355911#0 85355911#1 30405356 25472079 30405352 30350445 -33174302#1 -33174302#0 -32270595 -29900561#1 29900561#1"/>
    </vehicle>
    <vehicle id="74" depart="296.00">
        <route edges="-28269601 28269601 37591481 -113939241 113939244#0 113939244#1 113939244#2 -126606716 23339459 30405358#1 85355912 85355911#0 85355911#1 30405356 5931612 30350450#0 30350450#1 30350450#2 -3013106#2 -3013106#1 -3013106#0 -10573414#1 -10573414#0"/>
    </vehicle>
    <vehicle id="75" depart="300.00">
        <route edges="31241851#1 31241851#2 -31255203#0 4006702#1 4006702#2 -4006702#2"/>
    </vehicle>
    <vehicle id="76" depart="304.00">
        <route edges="-29900564#0 29900561#0 29900561#1 -4006687"/>
    </vehicle>
    <vehicle id="77" depart="308.00">
        <route edges="-4006682 32302591#1 32302591#2 32302591#3 32302591#4 32302591#5 33174302#0 33174302#1 4686970#0 4686970#1 122161381 30350448 8364476 30350450#0 -3998645#2 -3998615#3 3998615#3"/>
    </vehicle>
    <vehicle id="78" depart="312.00">
        <route edges="94344941 28768072 -28613737 -4006702#0 -3013106#2 3998615#0 3998615#1 3998615#2 3998615#3 -3998645#1"/>
    </vehicle>
    <vehicle id="79" depart="316.00">
        <route edges="31241835#0 -31241816#3 31241851#0 31241851#1 31241851#2 -31255203#0 28613737 94344941 94344940#0 -94344940#0"/>
    </vehicle>
    <vehicle id="80" depart="320.00">
        <route edges="-25398494#0 -31401017#2 -31401017#1 -31401017#0 -29900567 -23605600#2 4006675"/>
    </vehicle>
    <vehicle id="81" depart="324.00">
        <route edges="-3013109 -3998612#2 -3998612#1 -3998612#0 30357194 -30357194"/>
    </vehicle>
    <vehicle id="82" depart="328.00">
        <route edges="28613734 28613727#0 28613727#1 -94344940#0 28768072 -28613737 -4006702#0 -3013106#2 3998615#0 4006726#0"/>
    </vehicle>
    <vehicle id="83" depart="332.00">
        <route edges="4006705#2 -4006705#2 -4006705#1 4006703#1 28269598 -4006702#2 -4006702#1 -4006702#0 4319352#1 44069041#0 44069041#1 25472079 30405352 30350445 31353573#0 -31353573#0"/>
    </vehicle>
    <vehicle id="84" depart="336.00">
        <route edges="4006684 32302591#3 32302591#4 32302591#5 -29900565#3 -29900565#2 -29900565#1 -29900565#0"/>
    </vehicle>
    <vehicle id="85" depart="340.00">
        <route edges="4006702#1 -4006702#1 -4006702#0 4319352#1 44069041#0 44069041#1 25472079 30405352 30350445 -33174302#1 -33174302#0 -32302591#5 -32302591#4 -32302591#3 -32302591#2 -32302591#1 4006682 -4006682"/>
    </vehicle>
    <vehicle id="86" depart="344.00">
        <route edges="33174302#1 4686970#0 4686970#1 122161381 30350448 30350449 4400949 31982182#0 4047241 4797872 4797871 4006668 23339459 30405358#1 85355912"/>
    </vehicle>
    <vehicle id="87" depart="348.00">
        <route edges="-5445204#3 -5445204#2 -5445204#1 113939242#1 -25398494#0 -31401017#2 -31401017#1 4006688#0 -4006688#0"/>
    </vehicle>
    <vehicle id="88" depart="352.00">
        <route edges="8402998#3 31401017#2 25398494#0 113939242#2 113939241"/>
    </vehicle>
    <vehicle id="89" depart="356.00">
        <route edges="-4006687 8403001 29900561#0 29900561#1 32270595 33174302#0 33174302#1 4686970#0 4686970#1 122161381 30350448 8364476 30350450#0 30350450#1 30350450#2 4006702#0 4006702#1 4006702#2 -28269598 -4006703#1 4006705#1 4006705#2 -4006705#2"/>
    </vehicle>
    <vehicle id="90" depart="360.00">
        <route edges="-4006676 32302591#4 32302591#5 -32270595 -29900561#1 -29900561#0 -4006688#4 -4006688#3 -4006688#2 -4006688#1 -4006688#0 31401017#1 31401017#2 25398494#0 113939244#1 5445204#1 5445204#2 39539626"/>
    </vehicle>
    <vehicle id="91" depart="364.00">
        <route edges="-4047532 4047532 31401018 29900567 31401017#0 4006688#0 4006688#1 4006688#2 4006688#3 4006688#4 29900561#0 29900561#1 32270595 33174302#0 33174302#1 4686970#0 4686970#1 122161381 30350448 8364476 30350450#0 30350450#1 30350450#2 4006702#0 4006702#1 4006702#2 -28269598 28269598"/>
    </vehicle>
    <vehicle id="92" depart="368.00">
        <route edges="35842306#1 4047446#0 4047446#1 25472079 30405352 30350445 31353573#0 31353573#1 -3998613#2 4006740"/>
    </vehicle>
    <vehicle id="93" depart="372.00">
        <route edges="3998645#0 -3998645#0 3998612#1 3998612#2 3013106#0"/>
    </vehicle>
    <vehicle id="94" depart="376.00">
        <route edges="8402998#3 -31401017#1 4006688#0 4006688#1 4006688#2 4006688#3 4006688#4 -8403001 -4006674#4 -4006674#3 4006684"/>
    </vehicle>
    <vehicle id="95" depart="380.00">
        <route edges="-94344940#3 -94344940#2 -94344940#0 28768072 -28613737 4006702#1 4900043 4900041#1 4900041#2 4900041#3 4900041#0 -4900043"/>
    </vehicle>
    <vehicle id="96" depart="384.00">
        <route edges="31241855#1 31241853#1 -31241838#0 -31255203#1 -31255203#0 -4006702#0 4319352#1 44069041#0 44069041#1 25472079 30405352 30350445 -33174302#1 -33174302#0 -32270595 -29900561#1 -29900561#0 -8403001 -4006674#4 23605600#1 4006675"/>
    </vehicle>
    <vehicle id="97" depart="388.00">
        <route edges="23805514#0 23805514#1 -4006702#2 -4006702#1 31255203#0"/>
    </vehicle>
    <vehicle id="98" depart="392.00">
        <route edges="31241816#3 -31241816#3 31241851#0 31241851#1 31241851#2 -31255203#0 -4006702#0 4319352#1"/>
    </vehicle>
    <vehicle id="99" depart="396.00">
        <route edges="4099270#0 -3998615#2 3998643#2 30350450#2 4319352#1 44069041#0 44069041#1 25472079 30405352 30350445 -33174302#1 -33174302#0 -32270595 -29900561#1 -29900561#0 -4006688#4 -4006688#3 -4006688#2"/>
    </vehicle>
    <vehicle id="100" depart="400.00">
        <route edges="4319352#1 44069041#0 44069041#1 4400949 31982182#0 4047241 4797872 4797871 -15259223"/>
    </vehicle>
    <vehicle id="101" depart="404.00">
        <route edges="-32320329 -113939241 113939244#0 -25398494#0 -31401017#2 -31401017#1 4006688#0 4006688#1 4006688#2 4006688#3 4006688#4 29900561#0 29900561#1 32270595 33174302#0 4006689"/>
    </vehicle>
    <vehicle id="102" depart="408.00">
        <route edges="30357194 25472299 30350448 30350449 4400949 31982182#0 31982182#1"/>
    </vehicle>
    <vehicle id="103" depart="412.00">
        <route edges="-4006676 -32302591#3 -32302591#2 -32302591#1 -32302591#0 4006672 32270593 32270592#0 -4006675"/>
    </vehicle>
    <vehicle id="104" depart="416.00">
        <route edges="31241855#1 31241853#1 -31241838#0 -31255203#1 -31255203#0 -4006702#0 -3013106#2 3998615#0 3998615#1 3998643#2 30350450#2"/>
    </vehicle>
    <vehicle id="105" depart="420.00">
        <route edges="4006689 29900565#2 29900565#3 33174302#0 33174302#1 4686970#0 4686970#1 122161381 30350448 8364476 30350450#0 -3998645#2 -3998615#3 -3998615#2"/>
    </vehicle>
    <vehicle id="106" depart="424.00">
        <route edges="113939241 -113939241 113939244#0 -25398494#0 -31401017#2 -31401017#1 -31401017#0 -29900567 -23605600#2 4006675"/>
    </vehicle>
    <vehicle id="107" depart="428.00">
        <route edges="4006674#3 4006674#4 4006687 32270595 33174302#0 33174302#1 4686970#0 4686970#1 122161381 30350448 30350449 4047309 30751813 -35842306#1 -35842306#0"/>
    </vehicle>
    <vehicle id="108" depart="432.00">
        <route edges="-3013107 3013107 3013106#1 3013106#2 4319352#1 44069041#0 44069041#1 25472079 30405352 30350445 -33174302#1 -33174302#0 -32270595 -29900561#1 -29900561#0 -8403001 -4006674#4 -23605600#0"/>
    </vehicle>
    <vehicle id="109" depart="436.00">
        <route edges="113939244#1 113939242#1 -25398494#0 -31401017#2 -31401017#1 4006688#0 4006688#1 4006688#2 4006688#3 4006688#4 -4006688#4"/>
    </vehicle>
    <vehicle id="110" depart="440.00">
        <route edges="-5445204#1 113939244#2 -126606716 23339459 30405358#1 85355912 85355911#0 85355911#1 30405356 4400949 31982182#0 31982182#1"/>
    </vehicle>
    <vehicle id="111" depart="444.00">
        <route edges="4006689 29900565#2 29900565#3 33174302#0 33174302#1 4686970#0 4686970#1 122161381 30350448 8364476 30350450#0 30350450#1 30350450#2 4006702#0 31255203#0 -31241851#2 -31241851#1 -31241851#0 31241816#3 -31241835#0"/>
    </vehicle>
    <vehicle id="112" depart="448.00">
        <route edges="-29900565#2 29900565#2 29900565#3 33174302#0 33174302#1 4686970#0 4686970#1 122161381 30350448 8364476 30350450#0 30350450#1 30350450#2 4006702#0 31255203#0 -31241851#2 -31241851#1 -31241851#0"/>
    </vehicle>
    <vehicle id="113" depart="452.00">
        <route edges="-113939241 113939244#0 -25398494#0 -31401017#2 -31401017#1 4006688#0 4006688#1 4006688#2 4006688#3 4006688#4 -8403001 -4006674#4 -4006674#3 4006674#3"/>
    </vehicle>
    <vehicle id="114" depart="456.00">
        <route edges="-4006693#0 4006693#0 4006693#1 4006693#2 4006693#3 4006693#4"/>
    </vehicle>
    <vehicle id="115" depart="460.00">
        <route edges="25472257 -30357194 3998612#0 3998612#1 3998643#0 -4006726#0"/>
    </vehicle>
    <vehicle id="116" depart="464.00">
        <route edges="4006688#2 -4006688#2 -4006688#1 -4006688#0 31401017#1 31401017#2 25398494#0 113939242#2 113939241"/>
    </vehicle>
    <vehicle id="117" depart="468.00">
        <route edges="4047446#0 4047446#1 5931612 30350450#0 30350450#1 30350450#2 -3013106#2 -3013106#1 -3013106#0 3013106#0"/>
    </vehicle>
    <vehicle id="118" depart="472.00">
        <route edges="-4006691 29900565#1 29900565#2 29900565#3 33174302#0 33174302#1 4686970#0 4686970#1 122161381 30350448 8364476 30350450#0 30350450#1 30350450#2 4006702#0 4006702#1 4006702#2 4006701"/>
    </vehicle>
    <vehicle id="119" depart="476.00">
        <route edges="23570844#2 10419402 -4006693#1 -23605595 -8403007 -29900564#1 -8402998#2 -8402998#1 -8402997 32270595 33174302#0 33174302#1 4686970#0 25472257 -30357194 30357194"/>
    </vehicle>
    <vehicle id="120" depart="480.00">
        <route edges="3998645#1 3998645#2 30350450#1 30350450#2 4006702#0 4006702#1 4006702#2 -28269598 -4006703#1 4006705#1 4006705#2 31720632#0 31720632#1"/>
    </vehicle>
    <vehicle id="121" depart="484.00">
        <route edges="-4006672 32302591#0 32302591#1 32302591#2 32302591#3 32302591#4 32302591#5 33174302#0 33174302#1 4686970#0 25472257 -30357194 3998612#0 -4006725#1 -4872369"/>
    </vehicle>
    <vehicle id="122" depart="488.00">
        <route edges="4006702#1 -4006702#1 28613737 94344941 94344940#0"/>
    </vehicle>
    <vehicle id="123" depart="492.00">
        <route edges="4006672 -4006672 32302591#0 32302591#1 32302591#2 32302591#3 32302591#4 32302591#5 33174302#0 33174302#1 4686970#0 25472257 -30357194 30357194"/>
    </vehicle>
    <vehicle id="124" depart="496.00">
        <route edges="125685391 32302591#0 32302591#1 32302591#2 32302591#3 32302591#4 32302591#5 -32270595 -29900561#1 -29900561#0 -8403001 -4006674#4"/>
    </vehicle>
    <vehicle id="125" depart="500.00">
        <route edges="30350450#0 30350450#1 30350450#2 4319352#1 44069041#0 44069041#1 25472079 30405352 30350445 -33174302#1 -33174302#0 -29900565#3 -29900565#2 -29900565#1 -29900565#0 -4006690 --5558"/>
    </vehicle>
    <vehicle id="126" depart="504.00">
        <route edges="-3998612#1 3998612#1 3998612#2 3013106#0 3013106#1 3013106#2 4006702#0 31255203#0 31255203#1 31241838#0 -31241838#0"/>
    </vehicle>
    <vehicle id="127" depart="508.00">
        <route edges="4006702#0 -4006702#0 -3013106#2 -3013106#1 -3013106#0 -10573414#1 -10573414#0"/>
    </vehicle>
    <vehicle id="128" depart="512.00">
        <route edges="-28631632 28613727#1 94344940#2 -94344940#2"/>
    </vehicle>
    <vehicle id="129" depart="516.00">
        <route edges="28613734 28613727#0 28613727#1 -94344940#0 28768072 -28613737 4006702#1 4006702#2 4006701"/>
    </vehicle>
    <vehicle id="130" depart="520.00">
        <route edges="31982182#0 4047241 4797872 4797871 4006668 23339459 30405358#1 85355912 85355911#0 85355911#1 30405356 5931612 30350450#0 -3998645#2 -3998645#1 -4006726#2 -4006726#1 -4006726#0"/>
    </vehicle>
    <vehicle id="131" depart="524.00">
        <route edges="-31353573#0 4686970#0 4686970#1 122161381 30350448 30350449 4400949 31982182#0"/>
    </vehicle>
    <vehicle id="132" depart="528.00">
        <route edges="-4006687 8403001 29900561#0 29900561#1 32270595 33174302#0 33174302#1 4686970#0 4686970#1 122161381 30350448 8364476 30350450#0 30350450#1 30350450#2 4006702#0 28613737 94344941 94344940#0 -28613727#1"/>
    </vehicle>
    <vehicle id="133" depart="532.00">
        <route edges="23605600#0 4006674#4 4006687 32270595 33174302#0 33174302#1 4686970#0 4686970#1 122161381 30350448 8364476 30350450#0 -3998645#2 -3998615#3 4099270#1"/>
    </vehicle>
    <vehicle id="134" depart="536.00">
        <route edges="32282774 30357194 25472299 30350448 30350449 4400949 31982182#0 4047241 4797872 4797871 4006668 23339459 30405358#1"/>
    </vehicle>
    <vehicle id="135" depart="540.00">
        <route edges="32302591#5 33174302#0 33174302#1 4686970#0 25472257 -30357194"/>
    </vehicle>
    <vehicle id="136" depart="544.00">
        <route edges="-31261347 31241851#1 31241851#2 -31255203#0 -4006702#0 4319352#1 44069041#0 44069041#1 4400949 31982182#0 4047241 4797872 4797871 4006668 23339459 30405358#1"/>
    </vehicle>
    <vehicle id="137" depart="548.00">