<?xml version="1.0" encoding="UTF-8"?>

<!-- generated on 01/05/24 06:19:09 by Eclipse SUMO duarouter Version 1.2.0
<configuration xmlns:xsi="http://www.w3.org/2001/XMLSchema-instance" xsi:noNamespaceSchemaLocation="http://sumo.dlr.de/xsd/duarouterConfiguration.xsd">

    <input>
        <net-file value="erlangen.net.xml"/>
        <route-files value="trips.trips.xml"/>
    </input>

    <output>
        <output-file value="erlangen4_5.rou.xml"/>
        <alternatives-output value="erlangen4_5.rou.alt.xml"/>
    </output>

    <time>
        <begin value="0"/>
        <end value="30000.0"/>
    </time>

    <report>
        <no-warnings value="true"/>
        <ignore-errors value="true"/>
        <no-step-log value="true"/>
    </report>

</configuration>
-->

<routes xmlns:xsi="http://www.w3.org/2001/XMLSchema-instance" xsi:noNamespaceSchemaLocation="http://sumo.dlr.de/xsd/routes_file.xsd">
    <vehicle id="0" depart="0.00">
        <route edges="113939244#0 113939244#1 113939244#2 -126606716 -4006668 -15259223"/>
    </vehicle>
    <vehicle id="1" depart="4.50">
        <route edges="-28269598 28269598 -4006702#2 -4006702#1 31255203#0 -31241851#2 -31241851#1 -31241851#0 -31241848 -31241834#0 -31241835#1"/>
    </vehicle>
    <vehicle id="2" depart="9.00">
        <route edges="3998612#2 -3998612#2 -3998612#1 -3998612#0 -32282774"/>
    </vehicle>
    <vehicle id="3" depart="13.50">
        <route edges="-4006705#1 4006703#1 28269598 -4006702#2 -4006702#1 -4006702#0 -3013106#2 3998615#0 4006726#0 -4006726#0"/>
    </vehicle>
    <vehicle id="4" depart="18.00">
        <route edges="4797871 4006668 126606716 113939242#0 113939242#1 113939242#2 113939241 -37591481"/>
    </vehicle>
    <vehicle id="5" depart="22.50">
        <route edges="-113939241 113939244#0 113939244#1 113939244#2 -126606716 23339459 30405358#1 85355912 85355911#0 85355911#1 30405356 5931612 30350450#0 30350450#1 30350450#2 4006702#0 31255203#0 31255203#1 -31255203#1"/>
    </vehicle>
    <vehicle id="6" depart="27.00">
        <route edges="113939244#0 113939244#1 113939244#2 -126606716 23339459 30405358#1 85355912 85355911#0 85355911#1 30405356 5931612 30350450#0 -3998645#2 -3998645#1 -3998645#0 3998612#1 -3998612#1"/>
    </vehicle>
    <vehicle id="7" depart="31.50">
        <route edges="30405358#0 30405358#1 85355912 85355911#0 85355911#1 30405356 25472079 30405352 30350445 31353573#0 -31353573#0"/>
    </vehicle>
    <vehicle id="8" depart="36.00">
        <route edges="30405358#0 30405358#1 85355912 85355911#0 85355911#1 30405356 25472079 30405352 30350445 -33174302#1 -33174302#0 -32270595 -29900561#1 -29900561#0 -8403001 -4006674#4 23605600#1"/>
    </vehicle>
    <vehicle id="9" depart="40.50">
        <route edges="-28269601 28269601 37591481 -113939241 113939244#0 113939244#1 113939244#2 -126606716 23339459 30405358#1 85355912 85355911#0 85355911#1 30405356 5931612 30350450#0 30350450#1 30350450#2 4006702#0 4006702#1 4006702#2 -28269598"/>
    </vehicle>
    <vehicle id="10" depart="45.00">
        <route edges="-28613727#0 28613727#0 28613727#1 -94344940#0 28768072 -28613737 -4006702#0 4319352#1 44069041#0 44069041#1 4400949 31982182#0 4047241 4797872 4797871 4006668 126606716 113939242#0 5445204#1 -23360299"/>
    </vehicle>
    <vehicle id="11" depart="49.50">
        <route edges="29900564#0 -8402998#2 -8402998#1 -8402997 32270595 33174302#0 33174302#1 4686970#0 4686970#1 122161381 30350448 8364476 30350450#0 30350450#1 30350450#2 4006702#0 31255203#0 31255203#1 31241838#0"/>
    </vehicle>
    <vehicle id="12" depart="54.00">
        <route edges="4006673 -32302591#4 -32302591#3 -32302591#2 -32302591#1 4006682"/>
    </vehicle>
    <vehicle id="13" depart="58.50">
        <route edges="-3998613#2 -3998613#1 -3998613#0 3998612#0 3998612#1 3998612#2 3013106#0 3013106#1 3013106#2 4006702#0 31255203#0 31255203#1 31241838#0 31241838#1 -31241816#0 31241816#0"/>
    </vehicle>
    <vehicle id="14" depart="63.00">
        <route edges="4006693#4 4006690 29900565#0 29900565#1 29900565#2 29900565#3 33174302#0 33174302#1 4686970#0 4686970#1 122161381 30350448 8364476 30350450#0 -3998645#2 -3998615#3 -4099270#0"/>
    </vehicle>
    <vehicle id="15" depart="67.50">
        <route edges="30350450#2 4319352#1"/>
    </vehicle>
    <vehicle id="16" depart="72.00">
        <route edges="-4006740 -3998613#1 -3998613#0 3998612#0 3998645#0 -4006726#2 -4006726#1 -3998643#0"/>
    </vehicle>
    <vehicle id="17" depart="76.50">
        <route edges="4006693#4 4006690 29900565#0 29900565#1 29900565#2 29900565#3 33174302#0 33174302#1 4686970#0 4686970#1 122161381 30350448 8364476 30350450#0 30350450#1 30350450#2 4319352#1"/>
    </vehicle>
    <vehicle id="18" depart="81.00">
        <route edges="-23605595 23605595 -4006693#0 25398494#0 113939242#2 113939244#0"/>
    </vehicle>
    <vehicle id="19" depart="85.50">
        <route edges="-31401017#2 31401017#2 25398494#0 113939242#2 113939241 32320329"/>
    </vehicle>
    <vehicle id="20" depart="90.00">
        <route edges="31982182#0 4047241 4797872 4797871 4006668 23339459"/>
    </vehicle>
    <vehicle id="21" depart="94.50">
        <route edges="-4006674#3 4006674#3 4006674#4 4006687 32270595 33174302#0 33174302#1 4686970#0 4686970#1 122161381 30350448 8364476 30350450#0 30350450#1 30350450#2 4006702#0 28613737 94344941 94344940#0 94344940#2 94344940#3"/>
    </vehicle>
    <vehicle id="22" depart="99.00">
        <route edges="85355911#0 85355911#1 30405356 4400949 31982182#0 4047241 4797872 4797871 4006668 126606716 113939242#0 113939242#1 113939242#2 113939241 32320329"/>
    </vehicle>
    <vehicle id="23" depart="103.50">
        <route edges="30405358#1 85355912 85355911#0 85355911#1 30405356 25472079 30405352 30350445 -33174302#1 -33174302#0 -32270595 -29900561#1 -29900561#0 -4006688#4 10425131"/>
    </vehicle>
    <vehicle id="24" depart="108.00">
        <route edges="3998615#2 -3998615#2 3998643#2 30350450#2 4006702#0 28613737 94344941 94344940#0 -28613727#1"/>
    </vehicle>
    <vehicle id="25" depart="112.50">
        <route edges="-32320329 -113939241 113939244#0 -25398494#0 -31401017#2 -31401017#1 4006688#0 4006688#1 4006688#2 4006688#3 4006688#4 -8403001 -4006674#4 -4006674#3 -4006674#2 -4006683"/>
    </vehicle>
    <vehicle id="26" depart="117.00">
        <route edges="-113939241 113939241"/>
    </vehicle>
    <vehicle id="27" depart="121.50">
        <route edges="-4006687 8403001 29900561#0 29900561#1 -29900561#1"/>
    </vehicle>
    <vehicle id="28" depart="126.00">
        <route edges="29900565#0 29900565#1 29900565#2 29900565#3 33174302#0 33174302#1 4686970#0 4686970#1 122161381 30350448 8364476 30350450#0 30350450#1 30350450#2 4006702#0 31255203#0 -31241851#2 -31241851#1 -31241851#0 -31241848 31241834#1 31241855#0"/>
    </vehicle>
    <vehicle id="29" depart="130.50">
        <route edges="44069041#1 5931612 30350450#0 30350450#1 30350450#2 4006702#0 31255203#0"/>
    </vehicle>
    <vehicle id="30" depart="135.00">
        <route edges="-3998645#0 3998645#0 -4006726#2 4099270#0 -4099270#0"/>
    </vehicle>
    <vehicle id="31" depart="139.50">
        <route edges="31982182#0 4047241 4797872 4797871 4006668 23339459 30405358#1 85355912 85355911#0 85355911#1 30405356 4047309 30751813 -35842306#1 26188722"/>
    </vehicle>
    <vehicle id="32" depart="144.00">
        <route edges="-10425130 4006688#2 4006688#3 4006688#4 29900564#0 8402998#3"/>
    </vehicle>
    <vehicle id="33" depart="148.50">
        <route edges="-31401018 31401018 29900567 31401017#0 31401017#1 31401017#2 25398494#0 113939242#2 113939244#0"/>
    </vehicle>
    <vehicle id="34" depart="153.00">
        <route edges="113939242#2 113939244#0 -25398494#0 -31401017#2 -31401017#1 4006688#0 4006688#1 4006688#2 4006688#3 4006688#4 29900561#0 29900561#1 32270595 33174302#0 -33174302#0"/>
    </vehicle>
    <vehicle id="35" depart="157.50">
        <route edges="-28269601 28269601 37591481 -113939241 113939244#0 113939244#1 5445204#1 5445204#2"/>
    </vehicle>
    <vehicle id="36" depart="162.00">
        <route edges="10573414#0 10573414#1 -3998612#2 3998643#0 4006726#1"/>
    </vehicle>
    <vehicle id="37" depart="166.50">
        <route edges="-23605600#2 -23605600#1 4006674#4 4006687 32270595 33174302#0 33174302#1 4686970#0 4686970#1 122161381 30350448"/>
    </vehicle>
    <vehicle id="38" depart="171.00">
        <route edges="-3013109 3013106#0 3013106#1 3013106#2 4319352#1 44069041#0 25472134 30751813 -35842306#1 -35842306#0 -4900741 4099309"/>
    </vehicle>
    <vehicle id="39" depart="175.50">
        <route edges="-4900739#1 4900739#1 4900739#2 4900741 35842306#0 35842306#1 4047446#0 4047446#1 25472079 30405352 30350445 -33174302#1 -33174302#0 -32302591#5 -32302591#4 -32302591#3 -4006684"/>
    </vehicle>
    <vehicle id="40" depart="180.00">
        <route edges="4006693#1 -4006693#1 -4006693#0 -31401017#2 -31401017#1 -31401017#0 -29900567 -23605600#2 4006675"/>
    </vehicle>
    <vehicle id="41" depart="184.50">
        <route edges="-4006674#2 4006674#2 4006674#3 4006674#4 4006687 32270595 33174302#0 33174302#1 4686970#0 4686970#1 122161381 30350448 8364476 30350450#0 30350450#1 30350450#2 4006702#0 31255203#0 -31241851#2 -31241851#1 -31241851#0 -31241848 31241834#1 31241855#0"/>
    </vehicle>
    <vehicle id="42" depart="189.00">
        <route edges="-3998653 -3998613#0 30357194 25472299 30350448 30350449 4400949 31982182#0 4047241 4797872 4797871 4006668 126606716 113939242#0 5445204#1 -23360299"/>
    </vehicle>
    <vehicle id="43" depart="193.50">
        <route edges="4319352#1 44069041#0 44069041#1 5931612 30350450#0 30350450#1 30350450#2 4006702#0 4006702#1 4900043 4900041#1 4900041#2 4900041#3 4900041#0 -4900043"/>
    </vehicle>
    <vehicle id="44" depart="198.00">
        <route edges="-4006683 32302591#2 32302591#3 32302591#4 32302591#5 33174302#0 33174302#1 4686970#0 4686970#1 122161381 30350448 8364476 30350450#0 30350450#1 30350450#2 4006702#0 4006702#1 4006702#2 -28269598 -4006703#1 4006705#1 -4006705#1"/>
    </vehicle>
    <vehicle id="45" depart="202.50">
        <route edges="-31241834#1 31241848 31241851#0 31241851#1 31241851#2 -31255203#0 -4006702#0 4319352#1"/>
    </vehicle>
    <vehicle id="46" depart="207.00">
        <route edges="4006668 23339459 30405358#1 85355912 85355911#0 85355911#1 30405356 5931612 30350450#0 30350450#1 30350450#2 4006702#0 28613737 94344941 94344940#0 -94344940#0"/>
    </vehicle>
    <vehicle id="47" depart="211.50">
        <route edges="-4047532 4047532 31401018 29900567 31401017#0 4006688#0 4006688#1 4006688#2 4006688#3 4006688#4 29900561#0"/>
    </vehicle>
    <vehicle id="48" depart="216.00">
        <route edges="5445204#3 23570844#2 10419402 4006693#2 4006693#3 4006693#4 4006690 29900565#0 29900565#1 29900565#2 -29900565#2"/>
    </vehicle>
    <vehicle id="49" depart="220.50">
        <route edges="4006682 -4006682 32302591#1 32302591#2 32302591#3 32302591#4 32302591#5 33174302#0 33174302#1 4686970#0 4686970#1 122161381 30350448 30350449 4400949 31982182#0 4047241 4797872 4797871 4006668 126606716"/>
    </vehicle>
    <vehicle id="50" depart="225.00">
        <route edges="3013106#1 3013106#2 4319352#1 44069041#0 44069041#1 25472079 30405352 30350445 -33174302#1 -33174302#0 -32270595 -29900561#1 -29900561#0 -8403001 4006687"/>
    </vehicle>
    <vehicle id="51" depart="229.50">
        <route edges="23605600#0 4006674#4 4006687 32270595 33174302#0 33174302#1 4686970#0 4686970#1 122161381 30350448 30350449 4400949 31982182#0 31982182#1"/>
    </vehicle>
    <vehicle id="52" depart="234.00">
        <route edges="10573414#0 10573414#1 -3998612#2 3998643#0 4006726#1 4099270#0 -3998615#2"/>
    </vehicle>
    <vehicle id="53" depart="238.50">
        <route edges="-3998615#2 3998643#2 30350450#2 4319352#1 44069041#0 44069041#1 4400949 31982182#0 4047241 4797872 4797871 -15259223"/>
    </vehicle>
    <vehicle id="54" depart="243.00">
        <route edges="4006683 4006674#2 4006674#3 4006674#4 4006687 32270595 33174302#0 33174302#1 4686970#0 4686970#1 122161381 30350448 8364476 30350450#0 -3998645#2"/>
    </vehicle>
    <vehicle id="55" depart="247.50">
        <route edges="4006726#0 4006726#1 4006726#2 -3998645#0 -3998612#0 30357194 25472299 30350448 30350449 4400949 31982182#0 31982182#1"/>
    </vehicle>
    <vehicle id="56" depart="252.00">
        <route edges="113939241 -113939241 113939244#0 -25398494#0 -31401017#2 -31401017#1 4006688#0 4006688#1"/>
    </vehicle>
    <vehicle id="57" depart="256.50">
        <route edges="4006693#2 4006693#3 4006693#4 4006690 29900565#0 29900565#1 29900565#2 29900565#3 33174302#0 33174302#1 4686970#0 4686970#1 122161381 30350448 8364476 30350450#0 30350450#1 30350450#2 4006702#0 28613737 94344941 94344940#0 -94344940#0"/>
    </vehicle>
    <vehicle id="58" depart="261.00">
        <route edges="4006693#0 -23605595 -8403007 -29900564#1 -8402998#2 -8402998#1 -8402997 32270595 -32302591#5 -32302591#4 -32302591#3 -4006684"/>
    </vehicle>
    <vehicle id="60" depart="270.00">
        <route edges="-32320329 -113939241 113939244#0 -25398494#0 4006693#0 -23605595 -8403007 -29900564#1 8402998#3"/>
    </vehicle>
    <vehicle id="61" depart="274.50">
        <route edges="23605600#0 -23605600#0 -32302591#4 -32302591#3 -32302591#2 -32302591#1 -32302591#0"/>
    </vehicle>
    <vehicle id="62" depart="279.00">
        <route edges="31401017#2 -31401017#2 -31401017#1 4006688#0 4006688#1 4006688#2 4006688#3 4006688#4 29900561#0 29900561#1 32270595 33174302#0 33174302#1 4686970#0 4686970#1 122161381 30350448 30350449 4047309 30751813 -35842306#1 -35842306#0 -31777493#1"/>
    </vehicle>
    <vehicle id="63" depart="283.50">
        <route edges="4006725#0 4006725#1 -3998612#0 -32282774"/>
    </vehicle>
    <vehicle id="64" depart="288.00">
        <route edges="-28613727#1 28613727#1 -94344940#0 28768072 -28613737 -4006702#0 4319352#1 44069041#0 44069041#1 25472079 30405352 30350445 -33174302#1 -33174302#0 -29900565#3 -29900565#2"/>
    </vehicle>
    <vehicle id="65" depart="292.50">
        <route edges="37591481 -113939241 113939244#0 113939244#1 113939244#2 -126606716 23339459 30405358#1 85355912 85355911#0 85355911#1 30405356 5931612 30350450#0 30350450#1 30350450#2 4006702#0 4006702#1 4006702#2 4006701"/>
    </vehicle>
    <vehicle id="66" depart="297.00">
        <route edges="-9643180 29900561#1 32270595 33174302#0 33174302#1 4686970#0 4686970#1 122161381 30350448 8364476 30350450#0 30350450#1 30350450#2 -3013106#2 -3013106#1 -3013107 3013107"/>
    </vehicle>
    <vehicle id="67" depart="301.50">
        <route edges="4319352#0 4319352#1 44069041#0 44069041#1 25472079 30405352 19796637 122161390 -30357194"/>
    </vehicle>
    <vehicle id="68" depart="306.00">
        <route edges="31241834#1 31241855#0 31241816#0 -31241838#1 -31241838#0 -31255203#1 -31255203#0 -4006702#0 4319352#1 44069041#0 44069041#1 5931612 30350450#0 30350450#1"/>
    </vehicle>
    <vehicle id="69" depart="310.50">
        <route edges="4006726#2 -3998645#0 -3998612#0 30357194 25472299 30350448 30350449 25472079 30405352 30350445 -33174302#1 -33174302#0 -32270595 8402997 8402998#1 8402998#2 29900564#1 29900564#2 29900564#3"/>
    </vehicle>
    <vehicle id="70" depart="315.00">
        <route edges="4006674#2 4006674#3 4006674#4 8403001 -4006688#4 -4006688#3 -4006688#2 -4006688#1 -4006688#0 31401017#1 31401017#2 25398494#0"/>
    </vehicle>
    <vehicle id="71" depart="319.50">
        <route edges="30350450#2 4319352#1 44069041#0 25472134 30751813 4047446#0"/>
    </vehicle>
    <vehicle id="72" depart="324.00">
        <route edges="-31241853#2 -31241838#0 -31255203#1 -31255203#0 -4006702#0 -3013106#2 -3013106#1 -3013106#0 -3998612#2 -3998612#1 -3998612#0 3998613#0 3998613#1 3998613#2 -3998613#2"/>
    </vehicle>
    <vehicle id="73" depart="328.50">
        <route edges="113939242#2 113939244#0 113939244#1 113939244#2 -126606716 23339459 30405358#1 85355912 85355911#0 85355911#1 30405356 5931612 30350450#0 -3998645#2 -3998645#1 -4006726#2 -4006726#1 4006726#1"/>
    </vehicle>
    <vehicle id="74" depart="333.00">
        <route edges="113939241 -113939241 113939244#0 113939244#1 113939244#2 -126606716 23339459 30405358#1 85355912 85355911#0 85355911#1 30405356 5931612 30350450#0 -3998645#2 -3998645#1 -3998645#0"/>
    </vehicle>
    <vehicle id="75" depart="337.50">
        <route edges="-32320329 -113939241 113939244#0 -25398494#0 -31401017#2 -31401017#1 4006688#0 4006688#1 4006688#2 4006688#3 4006688#4 -8403001 4006687"/>
    </vehicle>
    <vehicle id="76" depart="342.00">
        <route edges="-32320329 -113939241 113939244#0 113939244#1 113939244#2 -126606716 23339459 30405358#1 85355912 85355911#0 85355911#1 30405356 5931612 30350450#0 30350450#1 30350450#2 4006702#0 28613737 94344941 94344940#0 -94344940#0"/>
    </vehicle>
    <vehicle id="77" depart="346.50">
        <route edges="37591481 -113939241 113939244#0 113939244#1 113939244#2 -126606716 23339459 30405358#1 85355912 85355911#0 85355911#1 30405356 4047309 30751813 -35842306#1 -35842306#0 -4900741 4099309"/>
    </vehicle>
    <vehicle id="78" depart="351.00">
        <route edges="-4006724#2 4872369 4006725#1 -3998612#0 30357194 -30357194"/>
    </vehicle>
    <vehicle id="79" depart="355.50">
        <route edges="4797872 4797871 4006668 23339459 30405358#1 85355912 85355911#0 85355911#1 30405356 4400949 31982182#0 31982182#1"/>
    </vehicle>
    <vehicle id="80" depart="360.00">
        <route edges="4006682 -4006682"/>
    </vehicle>
    <vehicle id="81" depart="364.50">
        <route edges="85355912 85355911#0 85355911#1 30405356 4400949 31982182#0 4047241 4797872 4797871 4006668 126606716 113939242#0 113939242#1 113939242#2"/>
    </vehicle>
    <vehicle id="82" depart="369.00">
        <route edges="-10419402 10419402 -4006693#1 -23605595 -8403007 -29900564#1 -8402998#2 -8402998#1 -8402997 32270595 33174302#0 33174302#1 4686970#0 4686970#1 122161381 30350448 8364476 30350450#0 -3998645#2 -3998645#1 -3998645#0"/>
    </vehicle>
    <vehicle id="83" depart="373.50">
        <route edges="4319352#1 44069041#0 44069041#1 4400949 31982182#0 4047241 4797872 4797871 4006668 23339459 30405358#1"/>
    </vehicle>
    <vehicle id="84" depart="378.00">
        <route edges="31241853#0 31241853#1 -31241838#0 -31255203#1 -31255203#0 4006702#1 4006702#2 -28269598 -4006703#1 -4006703#0"/>
    </vehicle>
    <vehicle id="85" depart="382.50">
        <route edges="113939241 -113939241 113939244#0 113939244#1 5445204#1 5445204#2 5445204#3 23570844#2 -23570844#2"/>
    </vehicle>
    <vehicle id="86" depart="387.00">
        <route edges="31241834#1 31241855#0 31241816#0 -31241838#1 -31241838#0 -31255203#1 -31255203#0 -4006702#0 -3013106#2 -3013106#1 -3013106#0 3013106#0"/>
    </vehicle>
    <vehicle id="87" depart="391.50">
        <route edges="-8402998#3 -29900564#0 -8403001 8403001"/>
    </vehicle>
    <vehicle id="88" depart="396.00">
        <route edges="29900561#0 29900561#1 32270595 33174302#0 33174302#1 31353573#0 4006673"/>
    </vehicle>
    <vehicle id="89" depart="400.50">
        <route edges="-32320329 -113939241 113939244#0 -25398494#0 -31401017#2 -31401017#1 4006688#0 4006688#1 4006688#2 4006688#3 4006688#4 -8403001 -4006674#4 -4006674#3 -4006674#2 -4006683"/>
    </vehicle>
    <vehicle id="90" depart="405.00">
        <route edges="-9643180 29900561#1 32270595 33174302#0 33174302#1 4686970#0 4686970#1 122161381 30350448 30350449 4400949 31982182#0 4047241 4797872 4797871 -15259223"/>
    </vehicle>
    <vehicle id="91" depart="409.50">
        <route edges="23570844#2 10419402 -4006693#1 -23605595 -8403007 -29900564#1 -8402998#2 -8402998#1 -8402997 32270595 -32302591#5 -32302591#4 -32302591#3 -32302591#2 -32302591#1 -32302591#0 4006672"/>
    </vehicle>
    <vehicle id="92" depart="414.00">
        <route edges="-4006693#2 -4006693#1 -23605595 -8403007 -29900564#1 -8402998#2 -8402998#1 -8402997 32270595 33174302#0 33174302#1 4686970#0 25472257 -30357194 3998612#0 3998612#1 3998612#2 -10573414#1 4047378"/>
    </vehicle>
    <vehicle id="93" depart="418.50">
        <route edges="31982182#0 4047241 4797872 4797871 -15259223"/>
    </vehicle>
    <vehicle id="94" depart="423.00">
        <route edges="-3998643#1 4006726#1 4006726#2 -3998645#0 -3998612#0 30357194 25472299 30350448 30350449 4400949 31982182#0 4047241 4797872 4797871 4006668 126606716 113939242#0 5445204#1 5445204#2 5445204#3"/>
    </vehicle>
    <vehicle id="95" depart="427.50">
        <route edges="30405358#0 30405358#1 85355912 85355911#0 85355911#1 30405356 25472079 30405352 30350445 -33174302#1 -33174302#0 -29900565#3 -29900565#2 -29900565#1 -29900565#0 -4006690 -4006693#4 -4006693#3 4006693#3"/>
    </vehicle>
    <vehicle id="96" depart="432.00">
        <route edges="-3998645#1 -4006726#2 -4006726#1 -4006726#0 -3998615#0 3013106#2 4006702#0 28613737 94344941 94344940#0 -28613727#1"/>
    </vehicle>
    <vehicle id="97" depart="436.50">
        <route edges="15259223 4006668 23339459 30405358#1 85355912 85355911#0 85355911#1 30405356 5931612 30350450#0 30350450#1 30350450#2 4006702#0 31255203#0 -31255203#0"/>
    </vehicle>
    <vehicle id="98" depart="441.00">
        <route edges="31241853#1 -31241838#0 -31255203#1 -31255203#0 -4006702#0 4319352#1 44069041#0 44069041#1 25472079 30405352 30350445 -33174302#1 -33174302#0 -32270595 -29900561#1 -29900561#0 -4006688#4 -4006688#3 -4006688#2 -4006688#1 10712011"/>
    </vehicle>
    <vehicle id="99" depart="445.50">
        <route edges="-3998645#1 -3998645#0 -3998612#0 3998613#0 3998613#1 3998613#2"/>
    </vehicle>
    <vehicle id="100" depart="450.00">
        <route edges="-113939241 113939244#0 -25398494#0 4006693#0 4006693#1 -10419402"/>
    </vehicle>
    <vehicle id="101" depart="454.50">
        <route edges="4006725#0 -4872369 -4006724#1 -4047378 10573414#1 3013106#0 3013106#1 3013106#2 4006702#0 31255203#0 -31241851#2 -31241851#1 -31241851#0 -31241848 -31241834#0 -31241835#1"/>
    </vehicle>
    <vehicle id="102" depart="459.00">
        <route edges="3013106#0 3013106#1 3013106#2 4006702#0 4006702#1 -4006702#1"/>
    </vehicle>
    <vehicle id="103" depart="463.50">
        <route edges="94344940#0 -94344940#0 28768072 -28613737 -4006702#0 -3013106#2 -3013106#1 -3013106#0 -3998612#2 -3998612#1 -3998612#0 3998613#0 3998653"/>
    </vehicle>
    <vehicle id="104" depart="468.00">
        <route edges="-4099309 4900741 35842306#0 35842306#1 4047446#0 4047446#1 4400949 31982182#0 4047241 4797872 4797871 -15259223"/>
    </vehicle>
    <vehicle id="105" depart="472.50">
        <route edges="4006726#0 4006726#1 4006726#2 -3998645#0 -3998612#0 30357194 25472299 30350448 30350449 4400949 31982182#0 4047241 4797872 4797871 4006668 -4006668"/>
    </vehicle>
    <vehicle id="106" depart="477.00">
        <route edges="-5445204#3 -5445204#2 -5445204#1 113939244#2 -126606716 23339459 30405358#1 85355912 85355911#0 85355911#1 30405356 5931612 30350450#0 30350450#1 30350450#2 -3013106#2 -3013106#1 -3013106#0 3013106#0"/>
    </vehicle>
    <vehicle id="107" depart="481.50">
        <route edges="-26188722 35842306#1 4047446#0 4047446#1 25472079 30405352 30350445 -33174302#1 -33174302#0 -32270595 -29900561#1 -29900561#0 -4006688#4 -4006688#3 -4006688#2 10425130"/>
    </vehicle>
    <vehicle id="108" depart="486.00">
        <route edges="-4006688#4 4006688#4 29900561#0 29900561#1 32270595 33174302#0 33174302#1 4686970#0 4686970#1 122161381 30350448 8364476 30350450#0 30350450#1 -3998643#2 -3998615#1 -3998615#0"/>
    </vehicle>
    <vehicle id="109" depart="490.50">
        <route edges="-3998645#2 -3998645#1 -3998645#0 -3998612#0 30357194 25472299 30350448 30350449 4400949 31982182#0 4047241 4797872 4797871 4006668 23339459 30405358#1"/>
    </vehicle>
    <vehicle id="110" depart="495.00">
        <route edges="4006688#0 -4006688#0 31401017#1 31401017#2 25398494#0 113939244#1 113939244#2 -126606716 23339459 30405358#1"/>
    </vehicle>
    <vehicle id="111" depart="499.50">
        <route edges="32302591#5 33174302#0 33174302#1 4686970#0 4686970#1 122161381 30350448 30350449 4400949 31982182#0 4047241 4797872 4797871 4006668 126606716 113939242#0"/>
    </vehicle>
    <vehicle id="112" depart="504.00">
        <route edges="23339459 30405358#1 85355912 85355911#0 85355911#1 30405356 4400949 31982182#0 4047241 4797872 4797871 4006668 126606716 113939242#0 113939242#1 113939242#2 113939241 -113939241"/>
    </vehicle>
    <vehicle id="113" depart="508.50">
        <route edges="25210699 4006705#2"/>
    </vehicle>
    <vehicle id="114" depart="513.00">
        <route edges="-31241834#0 -31241835#1 -31241816#3 31241851#0 31241851#1 31241851#2 -31255203#0 -4006702#0 4319352#1 44069041#0 44069041#1 4400949 31982182#0 4047241 4797872 4797871 4006668 126606716 113939242#0 113939242#1 113939242#2 113939241 -113939241"/>
    </vehicle>
    <vehicle id="115" depart="517.50">
        <route edges="30350450#1 30350450#2 4006702#0 28613737 94344941 94344940#0 -28613727#1"/>
    </vehicle>
    <vehicle id="116" depart="522.00">
        <route edges="-4006682 32302591#1 32302591#2 32302591#3 32302591#4 32302591#5 33174302#0 33174302#1 4686970#0 4686970#1 122161381 30350448 8364476 30350450#0 30350450#1 30350450#2 4319352#1"/>
    </vehicle>
    <vehicle id="117" depart="526.50">
        <route edges="-30357194 30357194 25472299 30350448 30350449 4400949 31982182#0 4047241 4797872 4797871 4006668 126606716 113939242#0 5445204#1 5445204#2 5445204#3"/>
    </vehicle>
    <vehicle id="118" depart="531.00">
        <route edges="10419402 -4006693#1 -23605595 -8403007 -29900564#1 -8402998#2 -8402998#1 -8402997 32270595 33174302#0 33174302#1 4686970#0 4686970#1 122161381 30350448 30350449 4047309 30751813 -35842306#1 -35842306#0 -31777493#1 31270441 -4047316"/>
    </vehicle>
    <vehicle id="119" depart="535.50">
        <route edges="-25398494#0 -31401017#2 -31401017#1 4006688#0 4006688#1 4006688#2 4006688#3 4006688#4 29900561#0 29900561#1 32270595 33174302#0 33174302#1 31353573#0 31353573#1"/>
    </vehicle>
    <vehicle id="120" depart="540.00">
        <route edges="30357194 -30357194 3998612#0 -4006725#1"/>
    </vehicle>
    <vehicle id="121" depart="544.50">
        <route edges="-10573414#1 10573414#1 3013106#0 3013106#1 3013106#2 4319352#1 44069041#0 44069041#1 25472079 30405352 30350445 -33174302#1 -33174302#0 -32270595 -29900561#1 -29900561#0 -4006688#4 -4006688#3 -4006688#2 -4006688#1 -4006688#0 31401017#1 31401017#2 25398494#0"/>
    </vehicle>
    <vehicle id="122" depart="549.00">
        <route edges="-3998613#2 3998613#2 -31353573#1 -31353573#0 4686970#0 4686970#1 122161381 30350448 30350449 4047309 30751813 -35842306#1 -35842306#0 -4900741 -4900739#2 -4900739#1"/>
    </vehicle>
    <vehicle id="123" depart="553.50">
        <route edges="-4900739#1 4900739#1 4900739#2 4900741 35842306#0 35842306#1 4047446#0 4047446#1 5931612 30350450#0 30350450#1 30350450#2 4006702#0 4006702#1 4006702#2 -28269598 -4006703#1 4006705#1 4006705#2"/>
    </vehicle>
    <vehicle id="124" depart="558.00">
        <route edges="8402998#3 31401017#2 25398494#0 113939244#1 5445204#1 5445204#2 5445204#3"/>
    </vehicle>
    <vehicle id="125" depart="562.50">
        <route edges="4006691 -29900564#2 -29900564#1 -8402998#2 -8402998#1 -8402997 32270595 33174302#0 33174302#1 4686970#0 25472257 -30357194 3998612#0 -4006725#1 4006725#1"/>
    </vehicle>
    <vehicle id="126" depart="567.00">
        <route edges="3013109 3013107 3013106#1 3013106#2 4319352#1 44069041#0 25472134 30751813 4047446#0 25472129"/>
    </vehicle>
    <vehicle id="127" depart="571.50">
        <route edges="4047378 4006724#1 4006724#2 -3998612#1 -3998612#0 30357194 25472299 30350448 30350449 4400949 31982182#0"/>
    </vehicle>
    <vehicle id="128" depart="576.00">
        <route edges="4319352#1 44069041#0 44069041#1 4400949 31982182#0 4047241 4797872 4797871 4006668 126606716 113939242#0 113939242#1 113939242#2 113939241 32320329"/>
    </vehicle>
    <vehicle id="129" depart="580.50">
        <route edges="-4006726#0 -3998615#0 3013106#2 4006702#0 28613737 94344941 94344940#0 -28613727#1 -28613727#0 -28613734"/>
    </vehicle>
    <vehicle id="130" depart="585.00">
        <route edges="8402998#3 -31401017#1 4006688#0 4006688#1 4006688#2 4006688#3 4006688#4 29900561#0 29900561#1 32270595 33174302#0 33174302#1 4686970#0 4686970#1 122161381 30350448 30350449 4047309 30751813 -35842306#1 -35842306#0 -31777493#1"/>
    </vehicle>
    <vehicle id="131" depart="589.50">
        <route edges="-4006701 -4006702#2 -4006702#1 -4006702#0 4319352#1 44069041#0 44069041#1 4400949 31982182#0 4047241 4797872 4797871 4006668 126606716 113939242#0 113939242#1 113939242#2 113939241 32320329"/>
    </vehicle>
    <vehicle id="132" depart="594.00">
        <route edges="30350448 30350449 25472079 30405352 30350445 -33174302#1 -33174302#0 -32270595 -29900561#1 -29900561#0 -8403001 -4006674#4 23605600#1 4006675"/>
    </vehicle>
    <vehicle id="133" depart="598.50">
        <route edges="5445204#2 -5445204#2 -5445204#1 113939244#2 -126606716 23339459 30405358#1 85355912 85355911#0 85355911#1 30405356 4047309 30751813 -35842306#1 -35842306#0 -4900741 -4900739#2 -4900739#1 -4099309"/>
    </vehicle>
    <vehicle id="134" depart="603.00">
        <route edges="3998615#2 -4099270#0 -4006726#1 -3998643#0 3998612#2"/>
    </vehicle>
    <vehicle id="135" depart="607.50">
        <route edges="-3998615#2 3998643#2 30350450#2 4319352#1 44069041#0 44069041#1 25472079 30405352 30350445 -33174302#1 -33174302#0 -32270595 8402997 8402998#1 8402998#2 29900564#1 8403007 -23341293"/>
    </vehicle>
    <vehicle id="136" depart="612.00">