<?xml version="1.0" encoding="UTF-8"?>

<!-- generated on 01/05/24 06:01:01 by Eclipse SUMO duarouter Version 1.2.0
<configuration xmlns:xsi="http://www.w3.org/2001/XMLSchema-instance" xsi:noNamespaceSchemaLocation="http://sumo.dlr.de/xsd/duarouterConfiguration.xsd">

    <input>
        <net-file value="erlangen.net.xml"/>
        <route-files value="trips.trips.xml"/>
    </input>

    <output>
        <output-file value="erlangen5.rou.xml"/>
        <alternatives-output value="erlangen5.rou.alt.xml"/>
    </output>

    <time>
        <begin value="0"/>
        <end value="30000.0"/>
    </time>

    <report>
        <no-warnings value="true"/>
        <ignore-errors value="true"/>
        <no-step-log value="true"/>
    </report>

</configuration>
-->

<routes xmlns:xsi="http://www.w3.org/2001/XMLSchema-instance" xsi:noNamespaceSchemaLocation="http://sumo.dlr.de/xsd/routes_file.xsd">
    <vehicle id="0" depart="0.00">
        <route edges="-10425130 4006688#2 4006688#3 4006688#4 29900561#0 29900561#1 32270595 33174302#0 33174302#1 4686970#0 4686970#1 122161381 30350448 30350449 4047309 30751813 -35842306#1 -35842306#0 -4900741 4099309"/>
    </vehicle>
    <vehicle id="1" depart="5.00">
        <route edges="4006726#1 4006726#2 -3998645#0 -3998612#0 30357194 25472299 30350448 30350449 4047309 30751813 -35842306#1 26188722"/>
    </vehicle>
    <vehicle id="2" depart="10.00">
        <route edges="-94344940#3 -94344940#2 -94344940#0 28768072 -28613737 -4006702#0 -3013106#2 -3013106#1 -3013106#0 -3998612#2 -3998612#1 -3998612#0 3998613#0 3998613#1 3998613#2 -31353573#1"/>
    </vehicle>
    <vehicle id="3" depart="15.00">
        <route edges="30405352 30350445"/>
    </vehicle>
    <vehicle id="4" depart="20.00">
        <route edges="4006702#1 -4006702#1 -4006702#0 -3013106#2 -3013106#1 -3013106#0 -10573414#1 -10573414#0"/>
    </vehicle>
    <vehicle id="5" depart="25.00">
        <route edges="30405358#0 30405358#1 85355912 85355911#0 85355911#1 30405356 25472079 30405352 30350445 31353573#0 31353573#1 -41973977 41973977"/>
    </vehicle>
    <vehicle id="6" depart="30.00">
        <route edges="10419402 -4006693#1 -23605595 -8403007 -29900564#1 8402998#3"/>
    </vehicle>
    <vehicle id="7" depart="35.00">
        <route edges="-3998645#2 -3998645#1 -3998645#0 -3998612#0 3998613#0 3998613#1 3998613#2 -31353573#1 4006673 23605600#0 23605600#1"/>
    </vehicle>
    <vehicle id="8" depart="40.00">
        <route edges="31241853#0 31241853#1 -31241838#0 -31255203#1 -31255203#0 28613737 94344941 94344940#0 -28613727#1 28613727#1"/>
    </vehicle>
    <vehicle id="9" depart="45.00">
        <route edges="3998645#1 -3998645#1 -4006726#2 -4006726#1 -4006726#0"/>
    </vehicle>
    <vehicle id="10" depart="50.00">
        <route edges="-4006674#3 4006674#3 4006674#4 4006687 32270595 33174302#0 33174302#1 4686970#0 25472257 -30357194 3998612#0 3998612#1 3998612#2"/>
    </vehicle>
    <vehicle id="11" depart="55.00">
        <route edges="-10425131 4006688#4 29900561#0 29900561#1 32270595 33174302#0 33174302#1 4686970#0 4686970#1 122161381 30350448 8364476 30350450#0 30350450#1 30350450#2 4006702#0 31255203#0 -31241851#2 -31241851#1 -31241851#0 -31241848 31241848"/>
    </vehicle>
    <vehicle id="12" depart="60.00">
        <route edges="-3998612#2 -3998612#1 -3998612#0 3998613#0 3998613#1 3998613#2 -31353573#1 4006673 23605600#0 23605600#1 4006675"/>
    </vehicle>
    <vehicle id="13" depart="65.00">
        <route edges="30405358#0 30405358#1 85355912 85355911#0 85355911#1 30405356 25472079 30405352 30350445 -33174302#1 -33174302#0 -32270595 -29900561#1 -29900561#0 -8403001 -4006674#4 -23605600#0"/>
    </vehicle>
    <vehicle id="14" depart="70.00">
        <route edges="30350450#2 4319352#1 44069041#0 25472134 30751813 -35842306#1 -35842306#0 -4900741 4099309"/>
    </vehicle>
    <vehicle id="15" depart="75.00">
        <route edges="4099309 4900739#1 4900739#2 4900741 35842306#0 35842306#1 4047446#0 25472129"/>
    </vehicle>
    <vehicle id="16" depart="80.00">
        <route edges="3998615#2 -3998615#2 3998643#2 30350450#2 4319352#1 44069041#0 44069041#1 25472079 30405352 30350445 -33174302#1 -33174302#0 -29900565#3 -29900565#2 -29900565#1 -29900565#0 29900565#0"/>
    </vehicle>
    <vehicle id="17" depart="85.00">
        <route edges="113939244#1 113939244#2 -126606716 23339459 30405358#1 85355912 85355911#0 85355911#1 30405356 5931612 30350450#0 30350450#1 30350450#2 4319353"/>
    </vehicle>
    <vehicle id="18" depart="90.00">
        <route edges="5445204#3 -5445204#3 -5445204#2 -5445204#1 113939244#2 -126606716 23339459 30405358#1 85355912 85355911#0 85355911#1 30405356 5931612 30350450#0 30350450#1 30350450#2 4006702#0 4006702#1 4006702#2 -28269598 -4006703#1 -4006705#0"/>
    </vehicle>
    <vehicle id="19" depart="95.00">
        <route edges="10573414#0 10573414#1 -3998612#2 3998643#0 -3998643#0"/>
    </vehicle>
    <vehicle id="20" depart="100.00">
        <route edges="3998612#1 -3998612#1 -3998612#0 3998613#0 3998613#1 4006740"/>
    </vehicle>
    <vehicle id="21" depart="105.00">
        <route edges="3998612#2 3013106#0 3013106#1 3013106#2 4319352#1 44069041#0 44069041#1 4400949 31982182#0 4047241 4797872 4797871 -15259223"/>
    </vehicle>
    <vehicle id="22" depart="110.00">
        <route edges="3013109 -3013109 -3998612#2"/>
    </vehicle>
    <vehicle id="23" depart="115.00">
        <route edges="4047532 31401018 -23605600#2 -23605600#1 -23605600#0 -32302591#4 -32302591#3 -32302591#2 -32302591#1 32302591#1"/>
    </vehicle>
    <vehicle id="24" depart="120.00">
        <route edges="25210699 -4006705#1 4006703#1 28269598 -4006702#2 -4006702#1 -4006702#0 4319352#1 44069041#0 44069041#1 25472079 30405352 30350445 -33174302#1 -33174302#0 -29900565#3 -29900565#2 -29900565#1 -29900565#0 -4006690 4006690"/>
    </vehicle>
    <vehicle id="25" depart="125.00">
        <route edges="3013109 3013107 3013106#1 3013106#2 4319352#1 44069041#0 44069041#1 25472079 30405352 30350445 -33174302#1 -33174302#0 -29900565#3 29900565#3"/>
    </vehicle>
    <vehicle id="27" depart="135.00">
        <route edges="-4006684 4006684 -32302591#2"/>
    </vehicle>
    <vehicle id="28" depart="140.00">
        <route edges="4006673 32302591#5 -32270595 -29900561#1 -29900561#0 -4006688#4 -4006688#3 -4006688#2 -4006688#1 -4006688#0 31401017#1 31401017#2 25398494#0 113939242#2 113939241 -113939241"/>
    </vehicle>
    <vehicle id="29" depart="145.00">
        <route edges="-32302591#1 32302591#1 32302591#2 32302591#3 32302591#4 32302591#5 33174302#0 33174302#1 4686970#0 4686970#1 122161381 30350448 8364476 30350450#0 30350450#1 -3998643#2 -3998615#1 4006726#0"/>
    </vehicle>
    <vehicle id="30" depart="150.00">
        <route edges="4872369 -4872369 4006724#2 3998612#2"/>
    </vehicle>
    <vehicle id="31" depart="155.00">
        <route edges="31353573#0 -31353573#0 4686970#0 4686970#1 122161381 30350448 30350449 4047309 30751813 -35842306#1 -35842306#0 -4900741 4099309"/>
    </vehicle>
    <vehicle id="32" depart="160.00">
        <route edges="-4047532 4047532 31401018 29900567 31401017#0 4006688#0 4006688#1 4006688#2 4006688#3 4006688#4 29900561#0 29900561#1 32270595 33174302#0 33174302#1 4686970#0 4686970#1"/>
    </vehicle>
    <vehicle id="33" depart="165.00">
        <route edges="-23605600#0 32302591#5 33174302#0 33174302#1 4686970#0 25472257 -30357194 30357194"/>
    </vehicle>
    <vehicle id="34" depart="170.00">
        <route edges="-32302591#5 32302591#5 33174302#0 33174302#1 4686970#0 4686970#1 122161381 30350448 30350449 4400949 31982182#0"/>
    </vehicle>
    <vehicle id="35" depart="175.00">
        <route edges="4006705#2 -4006705#2 -4006705#1 4006703#1 28269598 -4006702#2 -4006702#1 -4006702#0 4319352#1 44069041#0 44069041#1 25472079 30405352 30350445 -33174302#1 -33174302#0 -32270595 -29900561#1 -29900561#0 -8403001 -4006674#4 -4006674#3 -4006674#2 -4006683"/>
    </vehicle>
    <vehicle id="36" depart="180.00">
        <route edges="10425130 -4006688#3 -4006688#2 -4006688#1 -4006688#0 31401017#1 31401017#2 25398494#0 113939244#1 113939244#2 -126606716 23339459 30405358#1"/>
    </vehicle>
    <vehicle id="37" depart="185.00">
        <route edges="4006689 29900565#2 29900565#3 33174302#0 33174302#1 4686970#0 4686970#1 122161381 30350448 8364476 30350450#0 30350450#1 30350450#2 4006702#0 31255203#0 31255203#1 31241838#0 31241838#1 -31241838#1"/>
    </vehicle>
    <vehicle id="38" depart="190.00">
        <route edges="4006705#1 -4006705#1 4006703#1 28269598 -4006702#2 -4006702#1 -4006702#0 -3013106#2 -3013106#1 -3013106#0 -3998612#2 -3998612#1 -4006725#1"/>
    </vehicle>
    <vehicle id="39" depart="195.00">
        <route edges="-4006672 32302591#0 32302591#1 32302591#2 32302591#3 32302591#4 32302591#5 33174302#0 33174302#1 4686970#0 4686970#1 122161381 30350448 8364476 30350450#0 30350450#1 -3998643#2 -3998643#1"/>
    </vehicle>
    <vehicle id="40" depart="200.00">
        <route edges="3998612#0 -3998612#0 3998613#0 3998613#1 3998613#2 -31353573#1 -31353573#0 4686970#0"/>
    </vehicle>
    <vehicle id="41" depart="205.00">
        <route edges="25398494#0 -25398494#0 -31401017#2 -31401017#1 4006688#0 4006688#1 4006688#2 4006688#3 4006688#4 -8403001 -4006674#4 -4006674#3 4006684"/>
    </vehicle>
    <vehicle id="42" depart="210.00">
        <route edges="-23605600#1 4006674#4 4006687 32270595 33174302#0 33174302#1 4686970#0 4686970#1 122161381 30350448 30350449 4047309 30751813 -35842306#1 -35842306#0 -4900741 -4900739#2 -4900739#1"/>
    </vehicle>
    <vehicle id="43" depart="215.00">
        <route edges="-33174302#1 33174302#1 4686970#0 4686970#1 122161381 30350448 8364476 30350450#0 30350450#1 30350450#2 4006702#0 31255203#0 31255203#1 31241838#0 31241838#1 -31241838#1"/>
    </vehicle>
    <vehicle id="44" depart="220.00">
        <route edges="3998645#1 3998645#2 30350450#1 30350450#2 4006702#0 31255203#0 31255203#1 31241838#0 -31241853#1"/>
    </vehicle>
    <vehicle id="45" depart="225.00">
        <route edges="-4006688#4 4006688#4 29900561#0 29900561#1 32270595 33174302#0 33174302#1 4686970#0 4686970#1 122161381 30350448 8364476 30350450#0 30350450#1 30350450#2 4006702#0 28613737 94344941 94344940#0"/>
    </vehicle>
    <vehicle id="46" depart="230.00">
        <route edges="3998645#1 -3998645#1 -3998645#0 3998612#1 3998612#2 -10573414#1 -10573414#0"/>
    </vehicle>
    <vehicle id="47" depart="235.00">
        <route edges="-32302591#5 32302591#5 33174302#0 33174302#1 4686970#0 4686970#1 122161381 30350448 8364476 30350450#0 30350450#1 30350450#2 4006702#0 4006702#1 4006702#2 -4006702#2"/>
    </vehicle>
    <vehicle id="48" depart="240.00">
        <route edges="-31241851#0 31241851#0 31241851#1 31241851#2 -31255203#0 -4006702#0 4319352#1 44069041#0 44069041#1 4400949 31982182#0 4047241 4797872 4797871 4006668 126606716 113939242#0 113939242#1 113939242#2 113939241 32320329"/>
    </vehicle>
    <vehicle id="49" depart="245.00">
        <route edges="-3998612#2 -3998612#1 -3998612#0 30357194 25472299 30350448 30350449 25472079 30405352 30350445 -33174302#1"/>
    </vehicle>
    <vehicle id="50" depart="250.00">
        <route edges="126606716 -126606716 23339459 30405358#1 85355912 85355911#0 85355911#1 30405356 5931612 30350450#0 30350450#1 30350450#2 4006702#0 4006702#1 -4006702#1"/>
    </vehicle>
    <vehicle id="51" depart="255.00">
        <route edges="31241838#1 -31241838#1 -31241838#0 -31255203#1 -31255203#0 -4006702#0 -3013106#2 3998615#0 3998615#1 3998615#2 3998615#3 3998645#2"/>
    </vehicle>
    <vehicle id="52" depart="260.00">
        <route edges="23570844#2 10419402 -4006693#1 -23605595 -8403007 -29900564#1 -8402998#2 -8402998#1 -8402997 32270595 33174302#0 33174302#1 4686970#0 4686970#1 122161381 30350448 8364476 30350450#0 -3998645#2 -3998615#3 -4099270#0"/>
    </vehicle>
    <vehicle id="53" depart="265.00">
        <route edges="126606716 -126606716 23339459 30405358#1 85355912 85355911#0 85355911#1 30405356 25472079 30405352 30350445 -33174302#1 -33174302#0 -32302591#5 -32302591#4 -32302591#3 -32302591#2 -32302591#1 -32302591#0 32302591#0"/>
    </vehicle>
    <vehicle id="54" depart="270.00">
        <route edges="-4006691 29900565#1 29900565#2 29900565#3 -32302591#5 -32302591#4 -32302591#3 -32302591#2 -32302591#1 -32302591#0 -125685391"/>
    </vehicle>
    <vehicle id="55" depart="275.00">
        <route edges="-26188722 35842306#1 4047446#0 4047446#1 5931612 30350450#0 30350450#1 -3998643#2 -3998615#1 4006726#0"/>
    </vehicle>
    <vehicle id="56" depart="280.00">
        <route edges="4006691 -29900564#2 -29900564#1 -8402998#2 -8402998#1 -8402997 32270595 33174302#0 33174302#1 4686970#0 25472257 -30357194 3998612#0 3998612#1 -4006724#2 -4006724#1 -4047378 10573414#1"/>
    </vehicle>
    <vehicle id="57" depart="285.00">
        <route edges="-9643180 29900561#1 32270595 33174302#0 33174302#1 4686970#0 4686970#1 122161381 30350448 8364476 30350450#0 30350450#1 30350450#2 4006702#0 -4006702#0"/>
    </vehicle>
    <vehicle id="58" depart="290.00">
        <route edges="4006702#1 -4006702#1 -4006702#0 -3013106#2 -3013106#1 -3013106#0 -3998612#2 -3998612#1 -3998612#0 30357194"/>
    </vehicle>
    <vehicle id="59" depart="295.00">
        <route edges="-4900043 -4006702#1 -4006702#0 4319352#1 44069041#0 44069041#1 25472079 30405352 30350445 -33174302#1 -33174302#0 -32270595 -29900561#1 -29900561#0 -8403001 -4006674#4"/>
    </vehicle>
    <vehicle id="60" depart="300.00">
        <route edges="-29900564#3 -29900564#2 -29900564#1 -8402998#2 -8402998#1 -8402997 32270595 33174302#0 33174302#1 4686970#0 4686970#1 122161381 30350448 8364476 30350450#0 30350450#1 30350450#2 -3013106#2 -3013106#1 -3013107"/>
    </vehicle>
    <vehicle id="61" depart="305.00">
        <route edges="8402998#3 -31401017#1 4006688#0 4006688#1 4006688#2 4006688#3 4006688#4 29900561#0 29900561#1 32270595"/>
    </vehicle>
    <vehicle id="62" depart="310.00">
        <route edges="23805514#0 23805514#1 4006701"/>
    </vehicle>
    <vehicle id="63" depart="315.00">
        <route edges="-31241855#1 31241855#1 31241853#1 -31241838#0 -31255203#1 -31255203#0 -4006702#0 4319352#1 44069041#0 44069041#1 4400949 31982182#0 4047241 4797872 4797871 -15259223"/>
    </vehicle>
    <vehicle id="64" depart="320.00">
        <route edges="30350450#2 4319352#1 44069041#0 44069041#1 4400949 31982182#0"/>
    </vehicle>
    <vehicle id="65" depart="325.00">
        <route edges="-23605600#1 4006674#4 4006687 32270595 33174302#0 33174302#1 4686970#0 25472257 -30357194 3998612#0 3998612#1 3998612#2 -10573414#1 -10573414#0"/>
    </vehicle>
    <vehicle id="66" depart="330.00">
        <route edges="8402997 -8402997 32270595 33174302#0 33174302#1 4686970#0 4686970#1 122161381 30350448 30350449 4047309 30751813 -35842306#1 -35842306#0 -4900741 4099309"/>
    </vehicle>
    <vehicle id="67" depart="335.00">
        <route edges="-5445204#3 -5445204#2 -5445204#1 113939244#2 113939242#0"/>
    </vehicle>
    <vehicle id="68" depart="340.00">
        <route edges="-26188722 35842306#1 4047446#0 4047446#1 5931612 30350450#0 30350450#1 30350450#2 4006702#0 4006702#1 4006702#2 -28269598 -4006703#1 4006705#1 -25210699"/>
    </vehicle>
    <vehicle id="69" depart="345.00">
        <route edges="-3013107 3013107 3013106#1 3013106#2 4319352#1 44069041#0 44069041#1 4400949 31982182#0 4047241 4797872 4797871 -15259223"/>
    </vehicle>
    <vehicle id="70" depart="350.00">
        <route edges="-32320329 -113939241 113939244#0 113939244#1 113939244#2 -126606716 23339459 30405358#1 85355912 85355911#0 85355911#1 30405356 5931612 30350450#0 30350450#1"/>
    </vehicle>
    <vehicle id="71" depart="355.00">
        <route edges="-3013109 3013106#0 3013106#1 3013106#2 4319352#1 44069041#0 44069041#1 25472079 30405352 30350445 -33174302#1 -33174302#0 -32270595 8402997 8402998#1 8402998#2 29900564#1 8403007 23605595 4006693#1 -4006693#1"/>
    </vehicle>
    <vehicle id="72" depart="360.00">
        <route edges="30405358#0 30405358#1 85355912 85355911#0 85355911#1 30405356 25472079 30405352 30350445 -33174302#1 -33174302#0 -32270595 8402997 8402998#1 8402998#2 29900564#1 8403007 23605595 4006693#1 -10419402 -23570844#2"/>
    </vehicle>
    <vehicle id="73" depart="365.00">
        <route edges="31982182#0 4047241 4797872 4797871 4006668 23339459 30405358#1 85355912 85355911#0 85355911#1 30405356 25472079 30405352 19796637 122161390 -30357194"/>
    </vehicle>
    <vehicle id="74" depart="370.00">
        <route edges="3998615#3 -3998645#1 -3998645#0 -3998612#0 3998613#0 3998613#1 3998613#2 -31353573#1 4006673 -32302591#4 -32302591#3 -32302591#2 -32302591#1 -32302591#0 -125685391"/>
    </vehicle>
    <vehicle id="75" depart="375.00">
        <route edges="31401017#2 -31401017#2 -31401017#1 4006688#0 4006688#1 4006688#2 4006688#3 4006688#4 29900561#0 29900561#1 32270595 33174302#0 33174302#1 4686970#0 25472257 -30357194 3998612#0 3998612#1"/>
    </vehicle>
    <vehicle id="76" depart="380.00">
        <route edges="31241834#1 31241855#0 31241816#0 -31241838#1 -31241838#0 -31255203#1 -31255203#0 -4006702#0 4319352#1 44069041#0 44069041#1 25472079 30405352 30350445 31353573#0"/>
    </vehicle>
    <vehicle id="77" depart="385.00">
        <route edges="-10419402 10419402 -4006693#1 -4006693#0"/>
    </vehicle>
    <vehicle id="78" depart="390.00">
        <route edges="3013109 -3013109 -10573414#1 4047378 4006724#1 4872369 4006725#1"/>
    </vehicle>
    <vehicle id="79" depart="395.00">
        <route edges="31353573#1 -31353573#1 -31353573#0 4686970#0 25472257"/>
    </vehicle>
    <vehicle id="80" depart="400.00">
        <route edges="4006672 4006674#0 4006674#1 4006674#2 4006674#3 4006674#4 8403001 29900564#0 8402998#3"/>
    </vehicle>
    <vehicle id="81" depart="405.00">
        <route edges="-31255203#0 -4006702#0 4319352#1 44069041#0 44069041#1 25472079 30405352 30350445 -33174302#1 -33174302#0 -32270595 -29900561#1 -29900561#0 -8403001 -4006674#4 -23605600#0"/>
    </vehicle>
    <vehicle id="82" depart="410.00">
        <route edges="23350930 4900041#3 4900041#0 -4900043 -4006702#1 31255203#0 -31255203#0"/>
    </vehicle>
    <vehicle id="83" depart="415.00">
        <route edges="-4006705#2 -4006705#1 4006703#1 28269598 -4006702#2 -4006702#1 -4006702#0 -3013106#2 -3013106#1 -3013106#0 -10573414#1 10573414#1"/>
    </vehicle>
    <vehicle id="84" depart="420.00">
        <route edges="-8402998#3 -29900564#0 29900561#0 29900561#1 32270595 33174302#0 33174302#1 31353573#0 31353573#1 -3998613#2 4006740"/>
    </vehicle>
    <vehicle id="85" depart="425.00">
        <route edges="-4047378 10573414#1 -3998612#2 3998643#0 -4006726#0"/>
    </vehicle>
    <vehicle id="86" depart="430.00">
        <route edges="4006673 32302591#5 -32270595 -29900561#1 -29900561#0 -4006688#4 -4006688#3 -4006688#2 -4006688#1 -4006688#0 31401017#1 31401017#2 25398494#0 113939242#2 113939241 -37591481 -28269601"/>
    </vehicle>
    <vehicle id="87" depart="435.00">
        <route edges="4006688#0 4006688#1 4006688#2 4006688#3 4006688#4 29900561#0 29900561#1 32270595 33174302#0 33174302#1 4686970#0 4686970#1 122161381 30350448 30350449 4400949 31982182#0 31982182#1"/>
    </vehicle>
    <vehicle id="88" depart="440.00">
        <route edges="4099309 4900739#1 4900739#2 4900741 35842306#0 35842306#1 4047446#0 4047446#1 25472079 30405352 30350445 -33174302#1 -33174302#0 -32270595 -4006687 8403001"/>
    </vehicle>
    <vehicle id="89" depart="445.00">
        <route edges="29900561#1 -29900561#1 -29900561#0 29900564#0 29900564#1 8403007 23605595 4006693#1 -10419402 -23570844#2"/>
    </vehicle>
    <vehicle id="90" depart="450.00">
        <route edges="-3998645#0 -3998612#0 3998613#0 3998613#1 3998613#2 -3998613#2"/>
    </vehicle>
    <vehicle id="91" depart="455.00">
        <route edges="-4006701 -4006702#2 -4006702#1 -4006702#0 -3013106#2 -3013106#1 -3013106#0 -3998612#2 -3998612#1 -3998612#0 3998613#0 3998613#1 4006740"/>
    </vehicle>
    <vehicle id="92" depart="460.00">
        <route edges="4006705#2 -4006705#2 -4006705#1 4006703#1 28269598 -4006702#2 -4006702#1 -4006702#0 4319352#1 44069041#0 25472134 30751813 -35842306#1 -35842306#0 -4900741 -4900739#2 -4900739#1 4900739#1"/>
    </vehicle>
    <vehicle id="93" depart="465.00">
        <route edges="-4900043 -4006702#1 -4006702#0 -3013106#2 -3013106#1 -3013106#0"/>
    </vehicle>
    <vehicle id="94" depart="470.00">
        <route edges="-29900565#0 -29900564#5 -29900564#4 -29900564#3 -29900564#2 -29900564#1 -29900564#0 -8403001 -4006674#4 -4006674#3 -4006674#2 -4006674#1 -4006674#0 32270593 32270592#0"/>
    </vehicle>
    <vehicle id="95" depart="475.00">
        <route edges="31241834#1 31241855#0 31241816#0 -31241838#1 -31241838#0 -31255203#1 -31255203#0 -4006702#0 4319352#1 44069041#0 44069041#1 25472079 30405352 30350445 -33174302#1 -33174302#0 -32270595 -29900561#1 -29900561#0 -4006688#4 -4006688#3 -4006688#2 -4006688#1 -4006688#0 -31401017#0 -29900567 -31401018 -4047532"/>
    </vehicle>
    <vehicle id="96" depart="480.00">
        <route edges="31401017#2 4006693#0 4006693#1 -10419402 10419402"/>
    </vehicle>
    <vehicle id="97" depart="485.00">
        <route edges="30350450#1 30350450#2 4319352#1 44069041#0 44069041#1 25472079 30405352 30350445 -33174302#1 -33174302#0 -32270595 -29900561#1 -29900561#0 -8403001 -4006674#4 23605600#1 -23605600#1"/>
    </vehicle>
    <vehicle id="98" depart="490.00">
        <route edges="3998613#1 -3998613#1 -3998613#0 3998612#0 3998612#1 3998612#2 3013106#0 3013106#1 3013106#2 4006702#0 28613737 94344941 94344940#0 -28613727#1 -28613727#0"/>
    </vehicle>
    <vehicle id="99" depart="495.00">
        <route edges="25210699 -4006705#1 4006703#1 28269598 -4006702#2 -4006702#1 -4006702#0 4319352#1 44069041#0 25472134 30751813 -35842306#1 -35842306#0 -4900741 -4900739#2 -4900739#1 -4900739#0"/>
    </vehicle>
    <vehicle id="100" depart="500.00">
        <route edges="-31241816#3 31241851#0 31241851#1 31241851#2 -31255203#0 -4006702#0 4319352#1 44069041#0 25472134 30751813 -35842306#1 -35842306#0 -4900741 -4900739#2 -4900739#1 -4099309"/>
    </vehicle>
    <vehicle id="101" depart="505.00">
        <route edges="28269601 37591481 -113939241 113939244#0 113939244#1 5445204#1 5445204#2 5445204#3"/>
    </vehicle>
    <vehicle id="102" depart="510.00">
        <route edges="4006668 23339459 30405358#1 85355912 85355911#0 85355911#1 30405356 5931612 30350450#0 30350450#1 30350450#2 4006702#0 31255203#0 -31241851#2 -31241851#1 -31241851#0 31241816#3 31241835#1"/>
    </vehicle>
    <vehicle id="103" depart="515.00">
        <route edges="-4099309 4900741 35842306#0 35842306#1 4047446#0 4047446#1 5931612 30350450#0 -3998645#2 -3998645#1 -3998645#0 -4006725#1 4006725#1"/>
    </vehicle>
    <vehicle id="104" depart="520.00">
        <route edges="4006726#0 3998643#1 -3998643#1"/>
    </vehicle>
    <vehicle id="105" depart="525.00">
        <route edges="28269598 -4006702#2 -4006702#1 -4006702#0 4319352#1 44069041#0 44069041#1 25472079 30405352 30350445 -33174302#1 -33174302#0 -32302591#5 -32302591#4 -32302591#3 -32302591#2 -32302591#1 4006682 -4006674#0"/>
    </vehicle>
    <vehicle id="106" depart="530.00">
        <route edges="3998645#1 -3998645#1 -3998645#0 -3998612#0 30357194 25472299 30350448 30350449 25472079 30405352 30350445 -33174302#1 -33174302#0 -32270595 -29900561#1 -29900561#0 -4006688#4 -4006688#3 -4006688#2 -4006688#1 -4006688#0 -31401017#0 31401017#0"/>
    </vehicle>
    <vehicle id="107" depart="535.00">
        <route edges="113939241 -113939241 113939244#0 -25398494#0 4006693#0 4006693#1 4006693#2 -4006693#2"/>
    </vehicle>
    <vehicle id="108" depart="540.00">
        <route edges="32270593 -32270593 -4006672 32302591#0 32302591#1 32302591#2 32302591#3 32302591#4 32302591#5 33174302#0 33174302#1 4686970#0 4686970#1 122161381 30350448 8364476 30350450#0 30350450#1 30350450#2 4006702#0 4006702#1 4006702#2 -28269598 -4006703#1 4006705#1 -25210699"/>
    </vehicle>
    <vehicle id="109" depart="545.00">
        <route edges="4006726#0 4006726#1 4006726#2 -3998645#0 -3998612#0 30357194 25472299 30350448 30350449 4400949 31982182#0 4047241 4797872 4797871 4006668 126606716 113939242#0 5445204#1 5445204#2 5445204#3 -23570844#1"/>
    </vehicle>
    <vehicle id="110" depart="550.00">
        <route edges="125685391 32302591#0 32302591#1 32302591#2 32302591#3 32302591#4 32302591#5 33174302#0 33174302#1 4686970#0 25472257 -30357194 3998612#0 3998612#1 3998612#2 3013109"/>
    </vehicle>
    <vehicle id="111" depart="555.00">
        <route edges="8402998#0 -8402997 32270595 -32302591#5 -32302591#4 -32302591#3 -32302591#2 -32302591#1 4006682"/>
    </vehicle>
    <vehicle id="112" depart="560.00">
        <route edges="-10712013 -4006688#2 -4006688#1 -4006688#0 31401017#1 31401017#2 25398494#0 113939244#1 113939244#2 -126606716 -4006668 -15259223"/>
    </vehicle>
    <vehicle id="113" depart="565.00">
        <route edges="-10419402 10419402 -4006693#1 -23605595 -8403007 -29900564#1 -8402998#2 -8402998#1 -8402997 32270595 33174302#0 33174302#1 4686970#0 25472257 -30357194 3998612#0 3998612#1 -4006724#2 -4006724#1 -4047378 10573414#1"/>
    </vehicle>
    <vehicle id="114" depart="570.00">
        <route edges="4006724#0 4006724#1 4006724#2 3998643#0 4006726#1 4099270#0"/>
    </vehicle>
    <vehicle id="115" depart="575.00">
        <route edges="4006672 32270593 32270592#0 32270592#1 4047532 31401018 29900567 31401017#0 31401017#1 31401017#2 25398494#0 113939244#1 5445204#1 -23360299"/>
    </vehicle>
    <vehicle id="116" depart="580.00">
        <route edges="-4006690 4006690 29900565#0 29900565#1 29900565#2 29900565#3 33174302#0 33174302#1 31353573#0 31353573#1 -3998613#2 -3998613#1 3998653"/>
    </vehicle>
    <vehicle id="117" depart="585.00">
        <route edges="30405358#0 30405358#1 85355912 85355911#0 85355911#1 30405356 4400949 31982182#0 4047241 4797872 4797871 4006668 126606716 113939242#0 5445204#1 5445204#2 5445204#3"/>
    </vehicle>
    <vehicle id="118" depart="590.00">
        <route edges="4006682 4006674#1 4006674#2 4006674#3 4006674#4 8403001 -4006688#4 -4006688#3 -4006688#2 -4006688#1 -4006688#0 31401017#1 31401017#2 25398494#0 113939242#2"/>
    </vehicle>
    <vehicle id="119" depart="595.00">
        <route edges="31401017#0 4006688#0 4006688#1 4006688#2 4006688#3 4006688#4 29900561#0 29900561#1 32270595 33174302#0 33174302#1 4686970#0 25472257 -30357194 3998612#0 3998612#1 3998612#2 3013106#0"/>
    </vehicle>
    <vehicle id="120" depart="600.00">
        <route edges="126606716 -126606716 23339459 30405358#1 85355912 85355911#0 85355911#1 30405356 5931612 30350450#0 30350450#1 30350450#2 4006702#0 28613737 94344941 94344940#0 -28613727#1 -28613727#0 -28613734"/>
    </vehicle>
    <vehicle id="121" depart="605.00">
        <route edges="-4006683 32302591#2 32302591#3 32302591#4 32302591#5 -32270595 -29900561#1 -29900561#0 -4006688#4 -4006688#3 -4006688#2 -4006688#1 -4006688#0 31401017#1 31401017#2 25398494#0 113939242#2 113939241 -37591481 -28269601 28269601"/>
    </vehicle>
    <vehicle id="122" depart="610.00">
        <route edges="-3998615#2 -3998643#1 -3998643#0 -3998612#1 3998645#0"/>
    </vehicle>
    <vehicle id="123" depart="615.00">
        <route edges="-4006705#1 4006703#1 28269598 -4006702#2 -4006702#1 31255203#0 31255203#1 31241838#0 31241838#1 -31241838#1"/>
    </vehicle>
    <vehicle id="124" depart="620.00">
        <route edges="-126606716 23339459 30405358#1"/>
    </vehicle>
    <vehicle id="125" depart="625.00">
        <route edges="32282774 30357194 25472299 30350448 30350449 4400949 31982182#0 4047241 4797872 4797871 4006668 23339459 30405358#1"/>
    </vehicle>
    <vehicle id="126" depart="630.00">
        <route edges="23339459 30405358#1 85355912 85355911#0 85355911#1 30405356 5931612 30350450#0 30350450#1 30350450#2 -3013106#2 -3013106#1 -3013107"/>
    </vehicle>
    <vehicle id="127" depart="635.00">
        <route edges="25472134 30751813 4047446#0 4047446#1 25472079 30405352 30350445 -33174302#1 -33174302#0 -32270595 8402997 8402998#1 8402998#2 29900564#1 8403007 23605595 4006693#1 -10419402"/>
    </vehicle>
    <vehicle id="128" depart="640.00">
        <route edges="23570844#2 10419402 -4006693#1 -23605595 -8403007 -29900564#1 -8402998#2 -8402998#1 -8402997 32270595 33174302#0 33174302#1 4686970#0 4686970#1 122161381 30350448 8364476 30350450#0 30350450#1 -3998643#2 -3998615#1 4006726#0"/>
    </vehicle>
    <vehicle id="129" depart="645.00">
        <route edges="-32320329 -113939241 113939244#0 113939244#1 113939244#2 -126606716 23339459 30405358#1 85355912 85355911#0 85355911#1 30405356 5931612 30350450#0 30350450#1 30350450#2 4319353"/>
    </vehicle>
    <vehicle id="130" depart="650.00">
        <route edges="113939242#2 113939244#0 113939244#1 113939244#2 -126606716 23339459 30405358#1 85355912 85355911#0 85355911#1 30405356 5931612 30350450#0 30350450#1 30350450#2 -3013106#2 -3013106#1 -3013107"/>
    </vehicle>
    <vehicle id="131" depart="655.00">
        <route edges="-4690348 4900739#2 4900741 35842306#0 35842306#1 4047446#0 4047446#1 4400949 31982182#0 31982182#1"/>
    </vehicle>
    <vehicle id="132" depart="660.00">
        <route edges="33174302#1 4686970#0 4686970#1 122161381 30350448 30350449 4400949 31982182#0 4047241 4797872 4797871 -15259223"/>
    </vehicle>
    <vehicle id="133" depart="665.00">
        <route edges="4006724#0 4006724#1 4006724#2 -3998612#1 -3998612#0 30357194 25472299 30350448 30350449 25472079 30405352 30350445 -33174302#1 -33174302#0 -32270595 8402997 -8402997"/>
    </vehicle>
    <vehicle id="134" depart="670.00">
        <route edges="-4006687 8403001 29900561#0 29900561#1 32270595 33174302#0 33174302#1 31353573#0 31353573#1 -3998613#2 -3998613#1 -3998613#0"/>
    </vehicle>
    <vehicle id="135" depart="675.00">